# generated using pymatgen
data_MgFe(Si2O5)2
_symmetry_space_group_name_H-M   'P 1'
_cell_length_a   7.33303217
_cell_length_b   7.33303217
_cell_length_c   14.90616094
_cell_angle_alpha   90.00000000
_cell_angle_beta   90.00000000
_cell_angle_gamma   90.00000000
_symmetry_Int_Tables_number   1
_chemical_formula_structural   MgFe(Si2O5)2
_chemical_formula_sum   'Mg4 Fe4 Si16 O40'
_cell_volume   801.55437046
_cell_formula_units_Z   4
loop_
 _symmetry_equiv_pos_site_id
 _symmetry_equiv_pos_as_xyz
  1  'x, y, z'
loop_
 _atom_site_type_symbol
 _atom_site_label
 _atom_site_symmetry_multiplicity
 _atom_site_fract_x
 _atom_site_fract_y
 _atom_site_fract_z
 _atom_site_occupancy
  Mg  Mg0  1  0.250000  0.750000  0.500000  1
  Mg  Mg1  1  0.750000  0.250000  0.500000  1
  Mg  Mg2  1  0.750000  0.250000  0.000000  1
  Mg  Mg3  1  0.250000  0.750000  0.000000  1
  Fe  Fe4  1  0.250000  0.250000  0.568804  1
  Fe  Fe5  1  0.750000  0.750000  0.931196  1
  Fe  Fe6  1  0.750000  0.750000  0.431196  1
  Fe  Fe7  1  0.250000  0.250000  0.068804  1
  Si  Si8  1  0.912305  0.491551  0.644889  1
  Si  Si9  1  0.587695  0.008449  0.644889  1
  Si  Si10  1  0.991551  0.412305  0.855111  1
  Si  Si11  1  0.491551  0.587695  0.644889  1
  Si  Si12  1  0.008449  0.912305  0.644889  1
  Si  Si13  1  0.087695  0.991551  0.855111  1
  Si  Si14  1  0.412305  0.508449  0.855111  1
  Si  Si15  1  0.508449  0.087695  0.855111  1
  Si  Si16  1  0.087695  0.508449  0.355111  1
  Si  Si17  1  0.412305  0.991551  0.355111  1
  Si  Si18  1  0.008449  0.587695  0.144889  1
  Si  Si19  1  0.508449  0.412305  0.355111  1
  Si  Si20  1  0.991551  0.087695  0.355111  1
  Si  Si21  1  0.912305  0.008449  0.144889  1
  Si  Si22  1  0.587695  0.491551  0.144889  1
  Si  Si23  1  0.491551  0.912305  0.144889  1
  O  O24  1  0.982200  0.336842  0.575403  1
  O  O25  1  0.517800  0.163158  0.575403  1
  O  O26  1  0.836842  0.482200  0.924597  1
  O  O27  1  0.336842  0.517800  0.575403  1
  O  O28  1  0.163158  0.982200  0.575403  1
  O  O29  1  0.017800  0.836842  0.924597  1
  O  O30  1  0.482200  0.663158  0.924597  1
  O  O31  1  0.663158  0.017800  0.924597  1
  O  O32  1  0.017800  0.663158  0.424597  1
  O  O33  1  0.482200  0.836842  0.424597  1
  O  O34  1  0.163158  0.517800  0.075403  1
  O  O35  1  0.663158  0.482200  0.424597  1
  O  O36  1  0.836842  0.017800  0.424597  1
  O  O37  1  0.982200  0.163158  0.075403  1
  O  O38  1  0.517800  0.336842  0.075403  1
  O  O39  1  0.000765  0.307715  0.375203  1
  O  O40  1  0.336842  0.982200  0.075403  1
  O  O41  1  0.500765  0.807715  0.624797  1
  O  O42  1  0.192285  0.499235  0.875203  1
  O  O43  1  0.692285  0.500765  0.624797  1
  O  O44  1  0.807715  0.999235  0.624797  1
  O  O45  1  0.000765  0.192285  0.875203  1
  O  O46  1  0.499235  0.307715  0.875203  1
  O  O47  1  0.307715  0.000765  0.875203  1
  O  O48  1  0.445762  0.945762  0.250000  1
  O  O49  1  0.554238  0.445762  0.250000  1
  O  O50  1  0.945762  0.054239  0.250000  1
  O  O51  1  0.054239  0.554238  0.250000  1
  O  O52  1  0.554238  0.054239  0.750000  1
  O  O53  1  0.445762  0.554238  0.750000  1
  O  O54  1  0.054239  0.945762  0.750000  1
  O  O55  1  0.945762  0.445762  0.750000  1
  O  O56  1  0.692285  0.999235  0.124797  1
  O  O57  1  0.500765  0.692285  0.124797  1
  O  O58  1  0.999235  0.807715  0.124797  1
  O  O59  1  0.192285  0.000765  0.375203  1
  O  O60  1  0.307715  0.499235  0.375203  1
  O  O61  1  0.807715  0.500765  0.124797  1
  O  O62  1  0.499235  0.192285  0.375203  1
  O  O63  1  0.999235  0.692285  0.624797  1
