# generated using pymatgen
data_Mg(CoO2)2
_symmetry_space_group_name_H-M   'P 1'
_cell_length_a   5.95012539
_cell_length_b   5.95367805
_cell_length_c   17.88014065
_cell_angle_alpha   60.02165838
_cell_angle_beta   60.08418106
_cell_angle_gamma   60.12333747
_symmetry_Int_Tables_number   1
_chemical_formula_structural   Mg(CoO2)2
_chemical_formula_sum   'Mg6 Co12 O24'
_cell_volume   448.66055498
_cell_formula_units_Z   6
loop_
 _symmetry_equiv_pos_site_id
 _symmetry_equiv_pos_as_xyz
  1  'x, y, z'
loop_
 _atom_site_type_symbol
 _atom_site_label
 _atom_site_symmetry_multiplicity
 _atom_site_fract_x
 _atom_site_fract_y
 _atom_site_fract_z
 _atom_site_occupancy
  Mg  Mg0  1  0.121158  0.121250  0.045251  1
  Mg  Mg1  1  0.123500  0.123190  0.376604  1
  Mg  Mg2  1  0.499479  0.498022  0.334186  1
  Mg  Mg3  1  0.124467  0.124778  0.708602  1
  Mg  Mg4  1  0.499810  0.500044  0.000116  1
  Mg  Mg5  1  0.875191  0.875141  0.624965  1
  Co  Co6  1  0.498805  0.498820  0.166247  1
  Co  Co7  1  0.498684  0.003593  0.166253  1
  Co  Co8  1  0.500182  0.499190  0.498745  1
  Co  Co9  1  0.003590  0.498751  0.166218  1
  Co  Co10  1  0.499115  0.004684  0.498757  1
  Co  Co11  1  0.500146  0.501291  0.666254  1
  Co  Co12  1  0.879560  0.879404  0.287287  1
  Co  Co13  1  0.499630  0.499567  0.834250  1
  Co  Co14  1  0.004108  0.500096  0.498973  1
  Co  Co15  1  0.499562  0.998554  0.833955  1
  Co  Co16  1  0.998439  0.499402  0.834048  1
  Co  Co17  1  0.876288  0.876000  0.957251  1
  O  O18  1  0.254480  0.254631  0.091569  1
  O  O19  1  0.258350  0.257949  0.241648  1
  O  O20  1  0.254638  0.716115  0.091499  1
  O  O21  1  0.716006  0.254760  0.091546  1
  O  O22  1  0.251329  0.246055  0.427801  1
  O  O23  1  0.280718  0.745507  0.242721  1
  O  O24  1  0.258595  0.257864  0.574750  1
  O  O25  1  0.745941  0.280597  0.242655  1
  O  O26  1  0.741685  0.742060  0.091523  1
  O  O27  1  0.246469  0.718034  0.428109  1
  O  O28  1  0.719218  0.249976  0.428149  1
  O  O29  1  0.745467  0.745580  0.242706  1
  O  O30  1  0.272295  0.272167  0.748067  1
  O  O31  1  0.289824  0.726378  0.584996  1
  O  O32  1  0.730315  0.290779  0.584710  1
  O  O33  1  0.258458  0.258366  0.908065  1
  O  O34  1  0.742668  0.743934  0.424037  1
  O  O35  1  0.272949  0.711512  0.747365  1
  O  O36  1  0.711221  0.273580  0.747441  1
  O  O37  1  0.725651  0.730535  0.584914  1
  O  O38  1  0.277762  0.751262  0.906247  1
  O  O39  1  0.751289  0.277593  0.906380  1
  O  O40  1  0.740973  0.741153  0.759023  1
  O  O41  1  0.751985  0.751833  0.906123  1
