# generated using pymatgen
data_MgSi4NiO10
_symmetry_space_group_name_H-M   'P 1'
_cell_length_a   7.26758124
_cell_length_b   7.26758124
_cell_length_c   14.83604321
_cell_angle_alpha   90.00000000
_cell_angle_beta   90.00000000
_cell_angle_gamma   90.00000000
_symmetry_Int_Tables_number   1
_chemical_formula_structural   MgSi4NiO10
_chemical_formula_sum   'Mg4 Si16 Ni4 O40'
_cell_volume   783.60622957
_cell_formula_units_Z   4
loop_
 _symmetry_equiv_pos_site_id
 _symmetry_equiv_pos_as_xyz
  1  'x, y, z'
loop_
 _atom_site_type_symbol
 _atom_site_label
 _atom_site_symmetry_multiplicity
 _atom_site_fract_x
 _atom_site_fract_y
 _atom_site_fract_z
 _atom_site_occupancy
  Mg  Mg0  1  0.250000  0.750000  0.500000  1
  Mg  Mg1  1  0.750000  0.250000  0.500000  1
  Mg  Mg2  1  0.750000  0.250000  -0.000000  1
  Mg  Mg3  1  0.250000  0.750000  -0.000000  1
  Si  Si4  1  0.917903  0.492980  0.644018  1
  Si  Si5  1  0.582097  0.007020  0.644018  1
  Si  Si6  1  0.992980  0.417903  0.855982  1
  Si  Si7  1  0.492980  0.582097  0.644018  1
  Si  Si8  1  0.007020  0.917903  0.644018  1
  Si  Si9  1  0.082097  0.992980  0.855982  1
  Si  Si10  1  0.417903  0.507020  0.855982  1
  Si  Si11  1  0.507020  0.082097  0.855982  1
  Si  Si12  1  0.082097  0.507020  0.355982  1
  Si  Si13  1  0.417903  0.992980  0.355982  1
  Si  Si14  1  0.007020  0.582097  0.144018  1
  Si  Si15  1  0.507020  0.417903  0.355982  1
  Si  Si16  1  0.992980  0.082097  0.355982  1
  Si  Si17  1  0.917903  0.007020  0.144018  1
  Si  Si18  1  0.582097  0.492980  0.144018  1
  Si  Si19  1  0.492980  0.917903  0.144018  1
  Ni  Ni20  1  0.250000  0.250000  0.571875  1
  Ni  Ni21  1  0.750000  0.750000  0.928125  1
  Ni  Ni22  1  0.750000  0.750000  0.428125  1
  Ni  Ni23  1  0.250000  0.250000  0.071875  1
  O  O24  1  0.990080  0.336388  0.575120  1
  O  O25  1  0.509920  0.163612  0.575120  1
  O  O26  1  0.836388  0.490080  0.924880  1
  O  O27  1  0.336388  0.509920  0.575120  1
  O  O28  1  0.163612  0.990080  0.575120  1
  O  O29  1  0.009920  0.836388  0.924880  1
  O  O30  1  0.490080  0.663612  0.924880  1
  O  O31  1  0.663612  0.009920  0.924880  1
  O  O32  1  0.009920  0.663612  0.424880  1
  O  O33  1  0.490080  0.836388  0.424880  1
  O  O34  1  0.163612  0.509920  0.075120  1
  O  O35  1  0.663612  0.490080  0.424880  1
  O  O36  1  0.836388  0.009920  0.424880  1
  O  O37  1  0.990080  0.163612  0.075120  1
  O  O38  1  0.509920  0.336388  0.075120  1
  O  O39  1  0.997884  0.303441  0.377345  1
  O  O40  1  0.336388  0.990080  0.075120  1
  O  O41  1  0.497884  0.803441  0.622655  1
  O  O42  1  0.196559  0.502116  0.877345  1
  O  O43  1  0.696559  0.497884  0.622655  1
  O  O44  1  0.803441  0.002116  0.622655  1
  O  O45  1  0.997884  0.196559  0.877345  1
  O  O46  1  0.502116  0.303441  0.877345  1
  O  O47  1  0.303441  0.997884  0.877345  1
  O  O48  1  0.452947  0.952947  0.250000  1
  O  O49  1  0.547053  0.452947  0.250000  1
  O  O50  1  0.952947  0.047054  0.250000  1
  O  O51  1  0.047054  0.547053  0.250000  1
  O  O52  1  0.547053  0.047054  0.750000  1
  O  O53  1  0.452947  0.547053  0.750000  1
  O  O54  1  0.047054  0.952947  0.750000  1
  O  O55  1  0.952947  0.452947  0.750000  1
  O  O56  1  0.696559  0.002116  0.122655  1
  O  O57  1  0.497884  0.696559  0.122655  1
  O  O58  1  0.002116  0.803441  0.122655  1
  O  O59  1  0.196559  0.997884  0.377345  1
  O  O60  1  0.303441  0.502116  0.377345  1
  O  O61  1  0.803441  0.497884  0.122655  1
  O  O62  1  0.502116  0.196559  0.377345  1
  O  O63  1  0.002116  0.696559  0.622655  1
