# generated using pymatgen
data_MgMn2O4
_symmetry_space_group_name_H-M   'P 1'
_cell_length_a   6.22085847
_cell_length_b   6.22091839
_cell_length_c   17.60027554
_cell_angle_alpha   61.65821941
_cell_angle_beta   61.65979462
_cell_angle_gamma   56.25527837
_symmetry_Int_Tables_number   1
_chemical_formula_structural   MgMn2O4
_chemical_formula_sum   'Mg6 Mn12 O24'
_cell_volume   477.31054663
_cell_formula_units_Z   6
loop_
 _symmetry_equiv_pos_site_id
 _symmetry_equiv_pos_as_xyz
  1  'x, y, z'
loop_
 _atom_site_type_symbol
 _atom_site_label
 _atom_site_symmetry_multiplicity
 _atom_site_fract_x
 _atom_site_fract_y
 _atom_site_fract_z
 _atom_site_occupancy
  Mg  Mg0  1  0.122182  0.122067  0.046183  1
  Mg  Mg1  1  0.125183  0.125226  0.375342  1
  Mg  Mg2  1  0.498859  0.498850  0.001812  1
  Mg  Mg3  1  0.120779  0.120702  0.709700  1
  Mg  Mg4  1  0.878869  0.878881  0.289496  1
  Mg  Mg5  1  0.875531  0.875549  0.624261  1
  Mn  Mn6  1  0.006608  0.505561  0.165562  1
  Mn  Mn7  1  0.501607  0.501511  0.166691  1
  Mn  Mn8  1  0.000441  0.500537  0.499774  1
  Mn  Mn9  1  0.505601  0.006596  0.165562  1
  Mn  Mn10  1  0.502553  0.502592  0.332643  1
  Mn  Mn11  1  0.500423  0.500458  0.499569  1
  Mn  Mn12  1  0.994701  0.492950  0.834632  1
  Mn  Mn13  1  0.500513  0.000474  0.499773  1
  Mn  Mn14  1  0.492868  0.994729  0.834646  1
  Mn  Mn15  1  0.497522  0.497499  0.666584  1
  Mn  Mn16  1  0.499025  0.499059  0.832218  1
  Mn  Mn17  1  0.878017  0.878143  0.955062  1
  O  O18  1  0.261604  0.261580  0.088316  1
  O  O19  1  0.255634  0.255491  0.241264  1
  O  O20  1  0.262237  0.723596  0.090924  1
  O  O21  1  0.723734  0.262386  0.090862  1
  O  O22  1  0.282102  0.732039  0.249015  1
  O  O23  1  0.253309  0.253304  0.424183  1
  O  O24  1  0.732323  0.282151  0.248965  1
  O  O25  1  0.745191  0.745321  0.093541  1
  O  O26  1  0.272421  0.722118  0.418072  1
  O  O27  1  0.251060  0.251047  0.574664  1
  O  O28  1  0.746761  0.746670  0.243203  1
  O  O29  1  0.722079  0.272554  0.418048  1
  O  O30  1  0.278125  0.727459  0.581909  1
  O  O31  1  0.252041  0.252142  0.756917  1
  O  O32  1  0.727571  0.278135  0.581874  1
  O  O33  1  0.749129  0.749163  0.425252  1
  O  O34  1  0.250571  0.250447  0.908182  1
  O  O35  1  0.264410  0.716309  0.751544  1
  O  O36  1  0.746336  0.746411  0.576200  1
  O  O37  1  0.716485  0.264856  0.751439  1
  O  O38  1  0.282669  0.738808  0.908227  1
  O  O39  1  0.746006  0.746204  0.758865  1
  O  O40  1  0.739279  0.282794  0.908115  1
  O  O41  1  0.737641  0.737634  0.910911  1
