# generated using pymatgen
data_MgTi2O4
_symmetry_space_group_name_H-M   'P 1'
_cell_length_a   6.01260703
_cell_length_b   6.01077039
_cell_length_c   18.20219938
_cell_angle_alpha   60.30098694
_cell_angle_beta   60.31621140
_cell_angle_gamma   59.99863949
_symmetry_Int_Tables_number   1
_chemical_formula_structural   MgTi2O4
_chemical_formula_sum   'Mg6 Ti12 O24'
_cell_volume   467.31249215
_cell_formula_units_Z   6
loop_
 _symmetry_equiv_pos_site_id
 _symmetry_equiv_pos_as_xyz
  1  'x, y, z'
loop_
 _atom_site_type_symbol
 _atom_site_label
 _atom_site_symmetry_multiplicity
 _atom_site_fract_x
 _atom_site_fract_y
 _atom_site_fract_z
 _atom_site_occupancy
  Mg  Mg0  1  0.121538  0.121565  0.045152  1
  Mg  Mg1  1  0.128383  0.128442  0.371407  1
  Mg  Mg2  1  0.496588  0.496600  0.003444  1
  Mg  Mg3  1  0.128493  0.128452  0.704908  1
  Mg  Mg4  1  0.874430  0.874496  0.292137  1
  Mg  Mg5  1  0.874234  0.874212  0.625788  1
  Ti  Ti6  1  0.989948  0.504849  0.166847  1
  Ti  Ti7  1  0.504730  0.504651  0.166767  1
  Ti  Ti8  1  0.000995  0.499652  0.499759  1
  Ti  Ti9  1  0.504839  0.990022  0.166853  1
  Ti  Ti10  1  0.493096  0.492767  0.340390  1
  Ti  Ti11  1  0.500194  0.500165  0.499672  1
  Ti  Ti12  1  0.012641  0.497652  0.830551  1
  Ti  Ti13  1  0.499663  0.001108  0.499721  1
  Ti  Ti14  1  0.497648  0.012634  0.830550  1
  Ti  Ti15  1  0.501238  0.501377  0.665539  1
  Ti  Ti16  1  0.498097  0.498114  0.830575  1
  Ti  Ti17  1  0.880169  0.880165  0.952989  1
  O  O18  1  0.253708  0.253660  0.091441  1
  O  O19  1  0.260345  0.260319  0.239512  1
  O  O20  1  0.253708  0.718359  0.091439  1
  O  O21  1  0.718341  0.253685  0.091443  1
  O  O22  1  0.276720  0.737120  0.249610  1
  O  O23  1  0.255707  0.255788  0.419614  1
  O  O24  1  0.737088  0.276715  0.249609  1
  O  O25  1  0.752543  0.752543  0.080785  1
  O  O26  1  0.255362  0.729562  0.419784  1
  O  O27  1  0.259955  0.260001  0.573727  1
  O  O28  1  0.737138  0.737214  0.249621  1
  O  O29  1  0.729691  0.255351  0.419774  1
  O  O30  1  0.275373  0.741616  0.580550  1
  O  O31  1  0.257632  0.257637  0.751095  1
  O  O32  1  0.741633  0.275456  0.580529  1
  O  O33  1  0.741553  0.741465  0.425094  1
  O  O34  1  0.255981  0.255964  0.910787  1
  O  O35  1  0.257630  0.730868  0.751221  1
  O  O36  1  0.741476  0.741401  0.580573  1
  O  O37  1  0.730874  0.257627  0.751226  1
  O  O38  1  0.266773  0.746133  0.913600  1
  O  O39  1  0.741492  0.741499  0.758710  1
  O  O40  1  0.746093  0.266799  0.913603  1
  O  O41  1  0.746258  0.746296  0.913604  1
