# generated using pymatgen
data_Mg(BiO3)2
_symmetry_space_group_name_H-M   'P 1'
_cell_length_a   5.46672539
_cell_length_b   5.81851306
_cell_length_c   7.99415188
_cell_angle_alpha   89.98438278
_cell_angle_beta   89.99907383
_cell_angle_gamma   90.00008538
_symmetry_Int_Tables_number   1
_chemical_formula_structural   Mg(BiO3)2
_chemical_formula_sum   'Mg2 Bi4 O12'
_cell_volume   254.27967679
_cell_formula_units_Z   2
loop_
 _symmetry_equiv_pos_site_id
 _symmetry_equiv_pos_as_xyz
  1  'x, y, z'
loop_
 _atom_site_type_symbol
 _atom_site_label
 _atom_site_symmetry_multiplicity
 _atom_site_fract_x
 _atom_site_fract_y
 _atom_site_fract_z
 _atom_site_occupancy
  Mg  Mg0  1  0.539018  0.575104  0.250115  1
  Mg  Mg1  1  0.038986  0.924903  0.749868  1
  Bi  Bi2  1  0.509436  0.010116  0.000969  1
  Bi  Bi3  1  0.009441  0.489841  0.999013  1
  Bi  Bi4  1  0.010001  0.489928  0.500925  1
  Bi  Bi5  1  0.509992  0.010133  0.499053  1
  O  O6  1  0.663358  0.330612  0.430870  1
  O  O7  1  0.163341  0.169435  0.569116  1
  O  O8  1  0.780277  0.764406  0.082171  1
  O  O9  1  0.280311  0.735518  0.917807  1
  O  O10  1  0.281286  0.735041  0.582187  1
  O  O11  1  0.781285  0.765012  0.417803  1
  O  O12  1  0.162609  0.169341  0.931089  1
  O  O13  1  0.662649  0.330571  0.068926  1
  O  O14  1  0.174361  0.459592  0.249957  1
  O  O15  1  0.674329  0.040486  0.750031  1
  O  O16  1  0.390750  0.919935  0.250110  1
  O  O17  1  0.890751  0.580087  0.749883  1
