# generated using pymatgen
data_Mg3Mn3(AsO4)4
_symmetry_space_group_name_H-M   'P 1'
_cell_length_a   5.26785795
_cell_length_b   8.71378793
_cell_length_c   15.40429475
_cell_angle_alpha   99.08585332
_cell_angle_beta   90.00000000
_cell_angle_gamma   90.00000000
_symmetry_Int_Tables_number   1
_chemical_formula_structural   Mg3Mn3(AsO4)4
_chemical_formula_sum   'Mg6 Mn6 As8 O32'
_cell_volume   698.23114851
_cell_formula_units_Z   2
loop_
 _symmetry_equiv_pos_site_id
 _symmetry_equiv_pos_as_xyz
  1  'x, y, z'
loop_
 _atom_site_type_symbol
 _atom_site_label
 _atom_site_symmetry_multiplicity
 _atom_site_fract_x
 _atom_site_fract_y
 _atom_site_fract_z
 _atom_site_occupancy
  Mg  Mg0  1  0.948364  0.027085  0.710361  1
  Mg  Mg1  1  0.448364  0.472915  0.789639  1
  Mg  Mg2  1  0.051636  0.972915  0.289639  1
  Mg  Mg3  1  0.551636  0.527085  0.210361  1
  Mg  Mg4  1  -0.000000  0.000000  -0.000000  1
  Mg  Mg5  1  0.500000  0.500000  0.500000  1
  Mn  Mn6  1  0.003103  0.320761  0.125436  1
  Mn  Mn7  1  0.996897  0.679239  0.874564  1
  Mn  Mn8  1  0.503103  0.179239  0.374564  1
  Mn  Mn9  1  0.496897  0.820761  0.625436  1
  Mn  Mn10  1  0.500000  0.500000  -0.000000  1
  Mn  Mn11  1  -0.000000  0.000000  0.500000  1
  As  As12  1  0.517681  0.884733  0.852810  1
  As  As13  1  0.996024  0.309615  0.892543  1
  As  As14  1  0.496024  0.190385  0.607457  1
  As  As15  1  0.503976  0.809615  0.392543  1
  As  As16  1  0.482319  0.115267  0.147190  1
  As  As17  1  0.003976  0.690385  0.107457  1
  As  As18  1  0.982319  0.384733  0.352810  1
  As  As19  1  0.017681  0.615267  0.647190  1
  O  O20  1  0.109469  0.568221  0.748130  1
  O  O21  1  0.545758  0.264209  0.512248  1
  O  O22  1  0.078871  0.194114  0.799195  1
  O  O23  1  0.098867  0.812881  0.650309  1
  O  O24  1  0.921129  0.805886  0.200805  1
  O  O25  1  0.390531  0.068221  0.248130  1
  O  O26  1  0.578871  0.305886  0.700805  1
  O  O27  1  0.799586  0.894811  0.390131  1
  O  O28  1  0.812899  0.500882  0.428465  1
  O  O29  1  0.890531  0.431779  0.251870  1
  O  O30  1  0.401133  0.312881  0.150309  1
  O  O31  1  0.200414  0.105189  0.609869  1
  O  O32  1  0.205680  0.471236  0.901885  1
  O  O33  1  0.187101  0.499118  0.571535  1
  O  O34  1  0.806077  0.106668  0.129212  1
  O  O35  1  0.306077  0.393332  0.370788  1
  O  O36  1  0.705680  0.028764  0.598115  1
  O  O37  1  0.421129  0.694114  0.299195  1
  O  O38  1  0.312899  0.999118  0.071535  1
  O  O39  1  0.299586  0.605189  0.109869  1
  O  O40  1  0.693923  0.606668  0.629212  1
  O  O41  1  0.193923  0.893332  0.870788  1
  O  O42  1  0.454242  0.735791  0.487752  1
  O  O43  1  0.045758  0.235791  0.987752  1
  O  O44  1  0.794320  0.528764  0.098115  1
  O  O45  1  0.609469  0.931779  0.751870  1
  O  O46  1  0.901133  0.187119  0.349691  1
  O  O47  1  0.687101  0.000882  0.928465  1
  O  O48  1  0.954242  0.764209  0.012248  1
  O  O49  1  0.700414  0.394811  0.890131  1
  O  O50  1  0.294320  0.971236  0.401885  1
  O  O51  1  0.598867  0.687119  0.849691  1
