# generated using pymatgen
data_MnAs2O7
_symmetry_space_group_name_H-M   'P 1'
_cell_length_a   6.94237554
_cell_length_b   9.31318548
_cell_length_c   9.63071258
_cell_angle_alpha   90.00000000
_cell_angle_beta   105.70794793
_cell_angle_gamma   90.00000000
_symmetry_Int_Tables_number   1
_chemical_formula_structural   MnAs2O7
_chemical_formula_sum   'Mn4 As8 O28'
_cell_volume   599.42532438
_cell_formula_units_Z   4
loop_
 _symmetry_equiv_pos_site_id
 _symmetry_equiv_pos_as_xyz
  1  'x, y, z'
loop_
 _atom_site_type_symbol
 _atom_site_label
 _atom_site_symmetry_multiplicity
 _atom_site_fract_x
 _atom_site_fract_y
 _atom_site_fract_z
 _atom_site_occupancy
  Mn  Mn0  1  0.799568  0.066125  0.697368  1
  Mn  Mn1  1  0.200432  0.566125  0.802632  1
  Mn  Mn2  1  0.200432  0.933875  0.302632  1
  Mn  Mn3  1  0.799568  0.433875  0.197368  1
  As  As4  1  0.410191  0.251336  0.750712  1
  As  As5  1  0.589809  0.751336  0.749288  1
  As  As6  1  0.589809  0.748664  0.249288  1
  As  As7  1  0.410191  0.248664  0.250712  1
  As  As8  1  0.031176  0.295619  0.963966  1
  As  As9  1  0.968824  0.795619  0.536034  1
  As  As10  1  0.968824  0.704381  0.036034  1
  As  As11  1  0.031176  0.204381  0.463965  1
  O  O12  1  0.838673  0.314066  0.039838  1
  O  O13  1  0.161327  0.814066  0.460162  1
  O  O14  1  0.161327  0.685934  0.960162  1
  O  O15  1  0.838673  0.185934  0.539838  1
  O  O16  1  0.377689  0.433974  0.743318  1
  O  O17  1  0.622311  0.933974  0.756682  1
  O  O18  1  0.622311  0.566026  0.256682  1
  O  O19  1  0.377689  0.066026  0.243318  1
  O  O20  1  0.373085  0.161738  0.897428  1
  O  O21  1  0.626915  0.661738  0.602572  1
  O  O22  1  0.626915  0.838262  0.102572  1
  O  O23  1  0.373085  0.338262  0.397428  1
  O  O24  1  0.253600  0.160870  0.598566  1
  O  O25  1  0.746400  0.660870  0.901434  1
  O  O26  1  0.746400  0.839130  0.401434  1
  O  O27  1  0.253600  0.339130  0.098566  1
  O  O28  1  0.027777  0.080919  0.331512  1
  O  O29  1  0.972223  0.580919  0.168488  1
  O  O30  1  0.972223  0.919081  0.668488  1
  O  O31  1  0.027777  0.419081  0.831512  1
  O  O32  1  0.646219  0.273027  0.233962  1
  O  O33  1  0.353781  0.773027  0.266038  1
  O  O34  1  0.353781  0.726973  0.766038  1
  O  O35  1  0.646219  0.226973  0.733962  1
  O  O36  1  0.033422  0.372186  0.387921  1
  O  O37  1  0.966578  0.872186  0.112079  1
  O  O38  1  0.966578  0.627814  0.612079  1
  O  O39  1  0.033422  0.127814  0.887921  1
