# generated using pymatgen
data_MgTi2O4
_symmetry_space_group_name_H-M   'P 1'
_cell_length_a   6.12445945
_cell_length_b   5.93307954
_cell_length_c   5.93307917
_cell_angle_alpha   59.99999401
_cell_angle_beta   61.02840858
_cell_angle_gamma   61.02840876
_symmetry_Int_Tables_number   1
_chemical_formula_structural   MgTi2O4
_chemical_formula_sum   'Mg2 Ti4 O8'
_cell_volume   154.77179942
_cell_formula_units_Z   2
loop_
 _symmetry_equiv_pos_site_id
 _symmetry_equiv_pos_as_xyz
  1  'x, y, z'
loop_
 _atom_site_type_symbol
 _atom_site_label
 _atom_site_symmetry_multiplicity
 _atom_site_fract_x
 _atom_site_fract_y
 _atom_site_fract_z
 _atom_site_occupancy
  Mg  Mg0  1  0.009144  0.996952  0.996952  1
  Mg  Mg1  1  0.108349  0.630550  0.630550  1
  Ti  Ti2  1  0.263338  0.245555  0.245555  1
  Ti  Ti3  1  0.629460  0.136415  0.617062  1
  Ti  Ti4  1  0.629460  0.617062  0.136415  1
  Ti  Ti5  1  0.629460  0.617062  0.617062  1
  O  O6  1  0.375133  0.383218  0.383218  1
  O  O7  1  0.375133  0.383218  0.858429  1
  O  O8  1  0.375133  0.858429  0.383218  1
  O  O9  1  0.896327  0.367891  0.367891  1
  O  O10  1  0.406125  0.864625  0.864625  1
  O  O11  1  0.850980  0.402456  0.873282  1
  O  O12  1  0.850980  0.873282  0.402456  1
  O  O13  1  0.850980  0.873282  0.873282  1
