# generated using pymatgen
data_MgMn4(CuO4)3
_symmetry_space_group_name_H-M   'P 1'
_cell_length_a   6.37124110
_cell_length_b   6.37134822
_cell_length_c   6.37131735
_cell_angle_alpha   109.46084286
_cell_angle_beta   109.49161236
_cell_angle_gamma   109.46372691
_symmetry_Int_Tables_number   1
_chemical_formula_structural   MgMn4(CuO4)3
_chemical_formula_sum   'Mg1 Mn4 Cu3 O12'
_cell_volume   199.08988278
_cell_formula_units_Z   1
loop_
 _symmetry_equiv_pos_site_id
 _symmetry_equiv_pos_as_xyz
  1  'x, y, z'
loop_
 _atom_site_type_symbol
 _atom_site_label
 _atom_site_symmetry_multiplicity
 _atom_site_fract_x
 _atom_site_fract_y
 _atom_site_fract_z
 _atom_site_occupancy
  Mg  Mg0  1  0.999998  0.999998  0.999997  1
  Mn  Mn1  1  -0.000001  0.000007  0.499999  1
  Mn  Mn2  1  0.000002  0.499999  0.000004  1
  Mn  Mn3  1  0.500002  0.500002  0.500003  1
  Mn  Mn4  1  0.500000  0.000001  0.000003  1
  Cu  Cu5  1  0.499998  0.499999  0.999998  1
  Cu  Cu6  1  0.000001  0.500001  0.499999  1
  Cu  Cu7  1  0.500002  0.000000  0.500001  1
  O  O8  1  0.830842  0.306553  0.137402  1
  O  O9  1  0.169156  0.693440  0.862598  1
  O  O10  1  0.830801  0.693404  0.524240  1
  O  O11  1  0.306584  0.475699  0.169132  1
  O  O12  1  0.475607  0.169189  0.306428  1
  O  O13  1  0.137273  0.830794  0.306471  1
  O  O14  1  0.693396  0.862536  0.169125  1
  O  O15  1  0.524393  0.830812  0.693570  1
  O  O16  1  0.169201  0.306599  0.475758  1
  O  O17  1  0.693415  0.524297  0.830868  1
  O  O18  1  0.862729  0.169209  0.693531  1
  O  O19  1  0.306600  0.137461  0.830874  1
