# generated using pymatgen
data_MgTi2O4
_symmetry_space_group_name_H-M   'P 1'
_cell_length_a   5.97962539
_cell_length_b   5.98054533
_cell_length_c   18.25644404
_cell_angle_alpha   60.56735599
_cell_angle_beta   60.56135677
_cell_angle_gamma   59.99166808
_symmetry_Int_Tables_number   1
_chemical_formula_structural   MgTi2O4
_chemical_formula_sum   'Mg6 Ti12 O24'
_cell_volume   465.52240119
_cell_formula_units_Z   6
loop_
 _symmetry_equiv_pos_site_id
 _symmetry_equiv_pos_as_xyz
  1  'x, y, z'
loop_
 _atom_site_type_symbol
 _atom_site_label
 _atom_site_symmetry_multiplicity
 _atom_site_fract_x
 _atom_site_fract_y
 _atom_site_fract_z
 _atom_site_occupancy
  Mg  Mg0  1  0.121794  0.122029  0.044655  1
  Mg  Mg1  1  0.123927  0.123885  0.376074  1
  Mg  Mg2  1  0.494873  0.494845  0.338538  1
  Mg  Mg3  1  0.134933  0.134702  0.698535  1
  Mg  Mg4  1  0.499063  0.499049  0.000987  1
  Mg  Mg5  1  0.871217  0.871155  0.628739  1
  Ti  Ti6  1  0.506645  0.506903  0.165327  1
  Ti  Ti7  1  0.506007  0.990941  0.165362  1
  Ti  Ti8  1  0.504942  0.504906  0.500623  1
  Ti  Ti9  1  0.991256  0.505941  0.165382  1
  Ti  Ti10  1  0.504689  0.988339  0.500675  1
  Ti  Ti11  1  0.488658  0.488708  0.677906  1
  Ti  Ti12  1  0.878381  0.878542  0.288217  1
  Ti  Ti13  1  0.492740  0.492762  0.828378  1
  Ti  Ti14  1  0.988278  0.504682  0.500689  1
  Ti  Ti15  1  0.492840  0.029431  0.828315  1
  Ti  Ti16  1  0.029425  0.492918  0.828275  1
  Ti  Ti17  1  0.883456  0.883412  0.949905  1
  O  O18  1  0.253585  0.253608  0.091007  1
  O  O19  1  0.258500  0.258338  0.241614  1
  O  O20  1  0.253433  0.719483  0.091145  1
  O  O21  1  0.719250  0.253463  0.091213  1
  O  O22  1  0.252887  0.252794  0.425072  1
  O  O23  1  0.264295  0.743293  0.249718  1
  O  O24  1  0.263315  0.263357  0.570035  1
  O  O25  1  0.743351  0.264428  0.249658  1
  O  O26  1  0.757810  0.757465  0.075844  1
  O  O27  1  0.252907  0.719054  0.425102  1
  O  O28  1  0.719086  0.252882  0.425078  1
  O  O29  1  0.743556  0.743501  0.249509  1
  O  O30  1  0.252034  0.251913  0.750422  1
  O  O31  1  0.276636  0.737728  0.582691  1
  O  O32  1  0.737696  0.276553  0.582678  1
  O  O33  1  0.252483  0.252795  0.913863  1
  O  O34  1  0.752106  0.752022  0.414843  1
  O  O35  1  0.252303  0.744682  0.750366  1
  O  O36  1  0.744723  0.252372  0.750272  1
  O  O37  1  0.737620  0.737774  0.582594  1
  O  O38  1  0.267944  0.746606  0.912958  1
  O  O39  1  0.746570  0.267926  0.912945  1
  O  O40  1  0.738193  0.738106  0.761860  1
  O  O41  1  0.746592  0.746705  0.912933  1
