# generated using pymatgen
data_MgMn(SiO3)2
_symmetry_space_group_name_H-M   'P 1'
_cell_length_a   5.33493410
_cell_length_b   9.09724568
_cell_length_c   18.66405335
_cell_angle_alpha   90.00000000
_cell_angle_beta   90.00000000
_cell_angle_gamma   90.00000000
_symmetry_Int_Tables_number   1
_chemical_formula_structural   MgMn(SiO3)2
_chemical_formula_sum   'Mg8 Mn8 Si16 O48'
_cell_volume   905.82634966
_cell_formula_units_Z   8
loop_
 _symmetry_equiv_pos_site_id
 _symmetry_equiv_pos_as_xyz
  1  'x, y, z'
loop_
 _atom_site_type_symbol
 _atom_site_label
 _atom_site_symmetry_multiplicity
 _atom_site_fract_x
 _atom_site_fract_y
 _atom_site_fract_z
 _atom_site_occupancy
  Mg  Mg0  1  0.616273  0.151039  0.625074  1
  Mg  Mg1  1  0.383727  0.848961  0.374926  1
  Mg  Mg2  1  0.616273  0.651039  0.874926  1
  Mg  Mg3  1  0.116273  0.848961  0.874926  1
  Mg  Mg4  1  0.883727  0.151039  0.125074  1
  Mg  Mg5  1  0.383727  0.348961  0.125074  1
  Mg  Mg6  1  0.116273  0.348961  0.625074  1
  Mg  Mg7  1  0.883727  0.651039  0.374926  1
  Mn  Mn8  1  0.380555  0.984458  0.123138  1
  Mn  Mn9  1  0.619445  0.015542  0.876862  1
  Mn  Mn10  1  0.880555  0.015542  0.376862  1
  Mn  Mn11  1  0.119445  0.984458  0.623138  1
  Mn  Mn12  1  0.380555  0.484458  0.376862  1
  Mn  Mn13  1  0.619445  0.515542  0.623138  1
  Mn  Mn14  1  0.880555  0.515542  0.123138  1
  Mn  Mn15  1  0.119445  0.484458  0.876862  1
  Si  Si16  1  0.559672  0.660922  0.228951  1
  Si  Si17  1  0.707980  0.836625  0.524081  1
  Si  Si18  1  0.792020  0.836625  0.024081  1
  Si  Si19  1  0.940328  0.160922  0.771049  1
  Si  Si20  1  0.059672  0.339078  0.271049  1
  Si  Si21  1  0.440328  0.839078  0.728951  1
  Si  Si22  1  0.207980  0.663375  0.524081  1
  Si  Si23  1  0.707980  0.336625  0.975919  1
  Si  Si24  1  0.792020  0.336625  0.475919  1
  Si  Si25  1  0.940328  0.660922  0.728951  1
  Si  Si26  1  0.440328  0.339078  0.771049  1
  Si  Si27  1  0.559672  0.160922  0.271049  1
  Si  Si28  1  0.292020  0.163375  0.475919  1
  Si  Si29  1  0.059672  0.839078  0.228951  1
  Si  Si30  1  0.292020  0.663375  0.024081  1
  Si  Si31  1  0.207980  0.163375  0.975919  1
  O  O32  1  0.943523  0.502566  0.689779  1
  O  O33  1  0.285930  0.012886  0.935597  1
  O  O34  1  0.056477  0.497434  0.310221  1
  O  O35  1  0.707555  0.336325  0.063658  1
  O  O36  1  0.207554  0.163675  0.063658  1
  O  O37  1  0.919975  0.211542  0.948831  1
  O  O38  1  0.944101  0.664708  0.816405  1
  O  O39  1  0.055899  0.835292  0.316405  1
  O  O40  1  0.707555  0.836325  0.436342  1
  O  O41  1  0.944101  0.164708  0.683595  1
  O  O42  1  0.443523  0.497434  0.810221  1
  O  O43  1  0.792445  0.336325  0.563658  1
  O  O44  1  0.714070  0.987114  0.064403  1
  O  O45  1  0.444101  0.835292  0.816405  1
  O  O46  1  0.556477  0.002566  0.310221  1
  O  O47  1  0.285930  0.512886  0.564403  1
  O  O48  1  0.443523  0.997434  0.689779  1
  O  O49  1  0.169552  0.768275  0.698734  1
  O  O50  1  0.330448  0.768275  0.198734  1
  O  O51  1  0.580025  0.711542  0.051169  1
  O  O52  1  0.792445  0.836325  0.936342  1
  O  O53  1  0.555899  0.664708  0.316405  1
  O  O54  1  0.785930  0.487114  0.935597  1
  O  O55  1  0.169552  0.268275  0.801266  1
  O  O56  1  0.292445  0.163675  0.563658  1
  O  O57  1  0.555899  0.164708  0.183595  1
  O  O58  1  0.714070  0.487114  0.435597  1
  O  O59  1  0.207554  0.663675  0.436342  1
  O  O60  1  0.214070  0.512886  0.064403  1
  O  O61  1  0.669552  0.731725  0.698734  1
  O  O62  1  0.056477  0.997434  0.189779  1
  O  O63  1  0.830448  0.731725  0.198734  1
  O  O64  1  0.830448  0.231725  0.301266  1
  O  O65  1  0.785930  0.987114  0.564403  1
  O  O66  1  0.292445  0.663675  0.936342  1
  O  O67  1  0.214070  0.012886  0.435597  1
  O  O68  1  0.330448  0.268275  0.301266  1
  O  O69  1  0.080025  0.788458  0.051169  1
  O  O70  1  0.419975  0.788458  0.551169  1
  O  O71  1  0.669552  0.231725  0.801266  1
  O  O72  1  0.419975  0.288458  0.948831  1
  O  O73  1  0.580025  0.211542  0.448831  1
  O  O74  1  0.080025  0.288458  0.448831  1
  O  O75  1  0.444101  0.335292  0.683595  1
  O  O76  1  0.556477  0.502566  0.189779  1
  O  O77  1  0.919975  0.711542  0.551169  1
  O  O78  1  0.055899  0.335292  0.183595  1
  O  O79  1  0.943523  0.002566  0.810221  1
