# generated using pymatgen
data_MgFe(GeO3)2
_symmetry_space_group_name_H-M   'P 1'
_cell_length_a   5.46532409
_cell_length_b   9.17583793
_cell_length_c   9.92229206
_cell_angle_alpha   90.00000000
_cell_angle_beta   104.43997779
_cell_angle_gamma   90.00000000
_symmetry_Int_Tables_number   1
_chemical_formula_structural   MgFe(GeO3)2
_chemical_formula_sum   'Mg4 Fe4 Ge8 O24'
_cell_volume   481.87307272
_cell_formula_units_Z   4
loop_
 _symmetry_equiv_pos_site_id
 _symmetry_equiv_pos_as_xyz
  1  'x, y, z'
loop_
 _atom_site_type_symbol
 _atom_site_label
 _atom_site_symmetry_multiplicity
 _atom_site_fract_x
 _atom_site_fract_y
 _atom_site_fract_z
 _atom_site_occupancy
  Mg  Mg0  1  0.447531  0.487753  0.242560  1
  Mg  Mg1  1  0.052469  0.987753  0.757440  1
  Mg  Mg2  1  0.552469  0.512247  0.757440  1
  Mg  Mg3  1  0.947531  0.012247  0.242560  1
  Fe  Fe4  1  0.955477  0.655084  0.246261  1
  Fe  Fe5  1  0.544523  0.155084  0.753739  1
  Fe  Fe6  1  0.044523  0.344916  0.753739  1
  Fe  Fe7  1  0.455477  0.844916  0.246261  1
  Ge  Ge8  1  0.822278  0.338512  0.054979  1
  Ge  Ge9  1  0.677722  0.838512  0.945021  1
  Ge  Ge10  1  0.177722  0.661488  0.945021  1
  Ge  Ge11  1  0.322278  0.161488  0.054979  1
  Ge  Ge12  1  0.250206  0.343781  0.457506  1
  Ge  Ge13  1  0.249794  0.843781  0.542494  1
  Ge  Ge14  1  0.749794  0.656219  0.542494  1
  Ge  Ge15  1  0.750206  0.156219  0.457506  1
  O  O16  1  0.514471  0.290544  0.387698  1
  O  O17  1  0.985529  0.790544  0.612302  1
  O  O18  1  0.485529  0.709456  0.612302  1
  O  O19  1  0.014471  0.209456  0.387698  1
  O  O20  1  0.167378  0.320910  0.109227  1
  O  O21  1  0.332622  0.820910  0.890774  1
  O  O22  1  0.832622  0.679090  0.890774  1
  O  O23  1  0.667378  0.179090  0.109227  1
  O  O24  1  0.696880  0.992766  0.366949  1
  O  O25  1  0.803120  0.492766  0.633051  1
  O  O26  1  0.303120  0.007234  0.633051  1
  O  O27  1  0.196880  0.507234  0.366949  1
  O  O28  1  0.224283  0.017531  0.140262  1
  O  O29  1  0.275717  0.517531  0.859738  1
  O  O30  1  0.775717  0.982469  0.859738  1
  O  O31  1  0.724283  0.482469  0.140262  1
  O  O32  1  0.748828  0.338917  0.871116  1
  O  O33  1  0.751172  0.838917  0.128884  1
  O  O34  1  0.251172  0.661083  0.128884  1
  O  O35  1  0.248828  0.161083  0.871116  1
  O  O36  1  0.328301  0.346731  0.639338  1
  O  O37  1  0.171699  0.846731  0.360662  1
  O  O38  1  0.671699  0.653269  0.360662  1
  O  O39  1  0.828301  0.153269  0.639338  1
