# generated using pymatgen
data_MgBi3P3O13
_symmetry_space_group_name_H-M   'P 1'
_cell_length_a   7.11563348
_cell_length_b   8.47175770
_cell_length_c   10.94178166
_cell_angle_alpha   100.64026102
_cell_angle_beta   90.00000000
_cell_angle_gamma   90.00000000
_symmetry_Int_Tables_number   1
_chemical_formula_structural   MgBi3P3O13
_chemical_formula_sum   'Mg2 Bi6 P6 O26'
_cell_volume   648.25051618
_cell_formula_units_Z   2
loop_
 _symmetry_equiv_pos_site_id
 _symmetry_equiv_pos_as_xyz
  1  'x, y, z'
loop_
 _atom_site_type_symbol
 _atom_site_label
 _atom_site_symmetry_multiplicity
 _atom_site_fract_x
 _atom_site_fract_y
 _atom_site_fract_z
 _atom_site_occupancy
  Mg  Mg0  1  0.750000  0.575232  0.164460  1
  Mg  Mg1  1  0.250000  0.424768  0.835540  1
  Bi  Bi2  1  0.250000  0.356633  0.231681  1
  Bi  Bi3  1  0.750000  0.643367  0.768319  1
  Bi  Bi4  1  0.250000  0.800755  0.434115  1
  Bi  Bi5  1  0.500000  -0.000000  -0.000000  1
  Bi  Bi6  1  0.750000  0.199245  0.565885  1
  Bi  Bi7  1  0.000000  -0.000000  -0.000000  1
  P  P8  1  0.250000  0.229478  0.524957  1
  P  P9  1  0.750000  0.770522  0.475042  1
  P  P10  1  0.250000  0.718010  0.762395  1
  P  P11  1  0.750000  0.281990  0.237605  1
  P  P12  1  0.750000  0.326458  0.899588  1
  P  P13  1  0.250000  0.673542  0.100412  1
  O  O14  1  0.750000  0.358402  0.761605  1
  O  O15  1  0.575576  0.750414  0.387754  1
  O  O16  1  0.250000  0.765652  0.635262  1
  O  O17  1  0.565088  0.235382  0.915079  1
  O  O18  1  0.750000  0.642831  0.560490  1
  O  O19  1  0.750000  0.877275  0.890129  1
  O  O20  1  0.250000  0.357169  0.439510  1
  O  O21  1  0.065088  0.764618  0.084921  1
  O  O22  1  0.250000  0.061198  0.435937  1
  O  O23  1  0.750000  0.938802  0.564063  1
  O  O24  1  0.082097  0.606611  0.783721  1
  O  O25  1  0.250000  0.122725  0.109871  1
  O  O26  1  0.582097  0.393389  0.216279  1
  O  O27  1  0.750000  0.497780  0.981312  1
  O  O28  1  0.750000  0.234348  0.364738  1
  O  O29  1  0.434912  0.764618  0.084921  1
  O  O30  1  0.924424  0.750414  0.387754  1
  O  O31  1  0.424424  0.249586  0.612246  1
  O  O32  1  0.417903  0.606611  0.783721  1
  O  O33  1  0.250000  0.641598  0.238395  1
  O  O34  1  0.750000  0.123834  0.137517  1
  O  O35  1  0.250000  0.876166  0.862483  1
  O  O36  1  0.917903  0.393389  0.216279  1
  O  O37  1  0.934912  0.235382  0.915079  1
  O  O38  1  0.075577  0.249586  0.612246  1
  O  O39  1  0.250000  0.502220  0.018688  1
