# generated using pymatgen
data_MgFeAs2O7
_symmetry_space_group_name_H-M   'P 1'
_cell_length_a   7.38121589
_cell_length_b   8.69416719
_cell_length_c   9.72654650
_cell_angle_alpha   90.00000000
_cell_angle_beta   113.96761641
_cell_angle_gamma   90.00000000
_symmetry_Int_Tables_number   1
_chemical_formula_structural   MgFeAs2O7
_chemical_formula_sum   'Mg4 Fe4 As8 O28'
_cell_volume   570.36639501
_cell_formula_units_Z   4
loop_
 _symmetry_equiv_pos_site_id
 _symmetry_equiv_pos_as_xyz
  1  'x, y, z'
loop_
 _atom_site_type_symbol
 _atom_site_label
 _atom_site_symmetry_multiplicity
 _atom_site_fract_x
 _atom_site_fract_y
 _atom_site_fract_z
 _atom_site_occupancy
  Mg  Mg0  1  0.273694  0.923822  0.892986  1
  Mg  Mg1  1  0.726306  0.423822  0.607014  1
  Mg  Mg2  1  0.726306  0.076178  0.107014  1
  Mg  Mg3  1  0.273694  0.576178  0.392986  1
  Fe  Fe4  1  0.815326  0.056284  0.683258  1
  Fe  Fe5  1  0.184674  0.556284  0.816742  1
  Fe  Fe6  1  0.184674  0.943716  0.316742  1
  Fe  Fe7  1  0.815326  0.443716  0.183258  1
  As  As8  1  0.435379  0.227150  0.751934  1
  As  As9  1  0.564621  0.727150  0.748066  1
  As  As10  1  0.564621  0.772850  0.248066  1
  As  As11  1  0.435379  0.272850  0.251933  1
  As  As12  1  0.020185  0.276313  0.960244  1
  As  As13  1  0.979815  0.776313  0.539756  1
  As  As14  1  0.979815  0.723687  0.039756  1
  As  As15  1  0.020185  0.223687  0.460244  1
  O  O16  1  0.862097  0.268449  0.049577  1
  O  O17  1  0.137904  0.768449  0.450423  1
  O  O18  1  0.137904  0.731551  0.950423  1
  O  O19  1  0.862097  0.231551  0.549577  1
  O  O20  1  0.354341  0.400230  0.777561  1
  O  O21  1  0.645659  0.900230  0.722439  1
  O  O22  1  0.645659  0.599770  0.222439  1
  O  O23  1  0.354341  0.099770  0.277561  1
  O  O24  1  0.469402  0.096355  0.891650  1
  O  O25  1  0.530598  0.596355  0.608350  1
  O  O26  1  0.530598  0.903645  0.108350  1
  O  O27  1  0.469402  0.403646  0.391650  1
  O  O28  1  0.250917  0.144017  0.585030  1
  O  O29  1  0.749083  0.644017  0.914970  1
  O  O30  1  0.749083  0.855983  0.414970  1
  O  O31  1  0.250917  0.355983  0.085030  1
  O  O32  1  0.963030  0.084148  0.325511  1
  O  O33  1  0.036970  0.584148  0.174489  1
  O  O34  1  0.036970  0.915852  0.674489  1
  O  O35  1  0.963030  0.415852  0.825511  1
  O  O36  1  0.632897  0.259613  0.204526  1
  O  O37  1  0.367103  0.759613  0.295474  1
  O  O38  1  0.367103  0.740387  0.795474  1
  O  O39  1  0.632897  0.240387  0.704526  1
  O  O40  1  0.053767  0.398978  0.395516  1
  O  O41  1  0.946233  0.898978  0.104484  1
  O  O42  1  0.946233  0.601022  0.604484  1
  O  O43  1  0.053767  0.101022  0.895516  1
