# generated using pymatgen
data_Fe4(CuO4)3
_symmetry_space_group_name_H-M   'P 1'
_cell_length_a   6.36693245
_cell_length_b   6.36848537
_cell_length_c   6.36628353
_cell_angle_alpha   109.48707962
_cell_angle_beta   109.47641056
_cell_angle_gamma   109.43557178
_symmetry_Int_Tables_number   1
_chemical_formula_structural   Fe4(CuO4)3
_chemical_formula_sum   'Fe4 Cu3 O12'
_cell_volume   198.75068685
_cell_formula_units_Z   1
loop_
 _symmetry_equiv_pos_site_id
 _symmetry_equiv_pos_as_xyz
  1  'x, y, z'
loop_
 _atom_site_type_symbol
 _atom_site_label
 _atom_site_symmetry_multiplicity
 _atom_site_fract_x
 _atom_site_fract_y
 _atom_site_fract_z
 _atom_site_occupancy
  Fe  Fe0  1  0.000004  0.000004  0.500001  1
  Fe  Fe1  1  -0.000000  0.500004  0.000002  1
  Fe  Fe2  1  0.499995  0.500002  0.499996  1
  Fe  Fe3  1  0.499990  0.999994  0.000004  1
  Cu  Cu4  1  0.500018  0.500006  0.000018  1
  Cu  Cu5  1  -0.000014  0.499993  0.499980  1
  Cu  Cu6  1  0.499997  -0.000000  0.499997  1
  O  O7  1  0.824474  0.319229  0.143631  1
  O  O8  1  0.175535  0.680775  0.856383  1
  O  O9  1  0.824020  0.680552  0.504623  1
  O  O10  1  0.319182  0.494941  0.175519  1
  O  O11  1  0.494813  0.175698  0.319255  1
  O  O12  1  0.143507  0.823718  0.319516  1
  O  O13  1  0.680324  0.856416  0.176096  1
  O  O14  1  0.505190  0.824306  0.680749  1
  O  O15  1  0.175966  0.319429  0.495343  1
  O  O16  1  0.680828  0.505068  0.824488  1
  O  O17  1  0.856496  0.176286  0.680496  1
  O  O18  1  0.319674  0.143578  0.823902  1
