# generated using pymatgen
data_Cr(SiO3)2
_symmetry_space_group_name_H-M   'P 1'
_cell_length_a   5.10079388
_cell_length_b   10.71666749
_cell_length_c   18.42517812
_cell_angle_alpha   89.98873945
_cell_angle_beta   90.02037328
_cell_angle_gamma   90.01234817
_symmetry_Int_Tables_number   1
_chemical_formula_structural   Cr(SiO3)2
_chemical_formula_sum   'Cr8 Si16 O48'
_cell_volume   1007.18483844
_cell_formula_units_Z   8
loop_
 _symmetry_equiv_pos_site_id
 _symmetry_equiv_pos_as_xyz
  1  'x, y, z'
loop_
 _atom_site_type_symbol
 _atom_site_label
 _atom_site_symmetry_multiplicity
 _atom_site_fract_x
 _atom_site_fract_y
 _atom_site_fract_z
 _atom_site_occupancy
  Cr  Cr0  1  0.438292  0.044350  0.126773  1
  Cr  Cr1  1  0.561809  0.955501  0.873204  1
  Cr  Cr2  1  0.938610  0.955312  0.373265  1
  Cr  Cr3  1  0.061978  0.044514  0.626838  1
  Cr  Cr4  1  0.438240  0.544599  0.373267  1
  Cr  Cr5  1  0.561977  0.455301  0.626755  1
  Cr  Cr6  1  0.938024  0.455681  0.126840  1
  Cr  Cr7  1  0.061995  0.544555  0.873271  1
  Si  Si8  1  0.625109  0.668273  0.223625  1
  Si  Si9  1  0.769692  0.830088  0.526182  1
  Si  Si10  1  0.730599  0.830149  0.026229  1
  Si  Si11  1  0.874741  0.168359  0.776344  1
  Si  Si12  1  0.125139  0.331756  0.276318  1
  Si  Si13  1  0.374874  0.831675  0.723699  1
  Si  Si14  1  0.269638  0.669802  0.526186  1
  Si  Si15  1  0.769501  0.330134  0.973873  1
  Si  Si16  1  0.730328  0.330143  0.473735  1
  Si  Si17  1  0.874796  0.668235  0.723686  1
  Si  Si18  1  0.374763  0.331818  0.776372  1
  Si  Si19  1  0.625110  0.168166  0.276372  1
  Si  Si20  1  0.230262  0.169943  0.473774  1
  Si  Si21  1  0.125159  0.831671  0.223590  1
  Si  Si22  1  0.230479  0.669910  0.026248  1
  Si  Si23  1  0.269446  0.169792  0.973784  1
  O  O24  1  0.803307  0.543580  0.676343  1
  O  O25  1  0.333861  0.046833  0.925038  1
  O  O26  1  0.196674  0.456407  0.323686  1
  O  O27  1  0.772360  0.361437  0.061158  1
  O  O28  1  0.272415  0.138595  0.061104  1
  O  O29  1  0.972856  0.216766  0.954985  1
  O  O30  1  0.866185  0.633306  0.810539  1
  O  O31  1  0.134068  0.866678  0.310429  1
  O  O32  1  0.772606  0.861158  0.438866  1
  O  O33  1  0.866287  0.133319  0.689510  1
  O  O34  1  0.303484  0.456504  0.823673  1
  O  O35  1  0.727456  0.361232  0.561030  1
  O  O36  1  0.666476  0.953095  0.075006  1
  O  O37  1  0.366195  0.866560  0.810533  1
  O  O38  1  0.696702  0.043497  0.323744  1
  O  O39  1  0.334263  0.546792  0.574872  1
  O  O40  1  0.303366  0.956381  0.676411  1
  O  O41  1  0.168982  0.719281  0.704900  1
  O  O42  1  0.330925  0.719276  0.204772  1
  O  O43  1  0.527002  0.716860  0.045109  1
  O  O44  1  0.727713  0.861573  0.938972  1
  O  O45  1  0.633787  0.633356  0.310468  1
  O  O46  1  0.834288  0.453074  0.925107  1
  O  O47  1  0.169003  0.219363  0.795159  1
  O  O48  1  0.227299  0.138728  0.561058  1
  O  O49  1  0.633840  0.133357  0.189485  1
  O  O50  1  0.665971  0.453199  0.425079  1
  O  O51  1  0.272376  0.638701  0.438879  1
  O  O52  1  0.165860  0.546940  0.074938  1
  O  O53  1  0.669124  0.780735  0.704916  1
  O  O54  1  0.196039  0.956392  0.176222  1
  O  O55  1  0.830935  0.780657  0.204773  1
  O  O56  1  0.830852  0.280733  0.295103  1
  O  O57  1  0.834613  0.953062  0.574829  1
  O  O58  1  0.227526  0.638771  0.938961  1
  O  O59  1  0.165750  0.046912  0.425125  1
  O  O60  1  0.330850  0.219254  0.295137  1
  O  O61  1  0.027044  0.783194  0.045118  1
  O  O62  1  0.473137  0.783174  0.545033  1
  O  O63  1  0.668992  0.280776  0.795124  1
  O  O64  1  0.473015  0.283149  0.954902  1
  O  O65  1  0.526696  0.216890  0.454881  1
  O  O66  1  0.026729  0.283222  0.454890  1
  O  O67  1  0.366123  0.366623  0.689488  1
  O  O68  1  0.696190  0.543648  0.176269  1
  O  O69  1  0.973206  0.716756  0.545027  1
  O  O70  1  0.133840  0.366780  0.189469  1
  O  O71  1  0.803172  0.043693  0.823646  1
