# generated using pymatgen
data_MgTiCr(PO4)3
_symmetry_space_group_name_H-M   'P 1'
_cell_length_a   8.53409894
_cell_length_b   8.53409900
_cell_length_c   8.53409870
_cell_angle_alpha   60.48602609
_cell_angle_beta   60.48602641
_cell_angle_gamma   60.48603159
_symmetry_Int_Tables_number   1
_chemical_formula_structural   MgTiCr(PO4)3
_chemical_formula_sum   'Mg2 Ti2 Cr2 P6 O24'
_cell_volume   444.32710181
_cell_formula_units_Z   2
loop_
 _symmetry_equiv_pos_site_id
 _symmetry_equiv_pos_as_xyz
  1  'x, y, z'
loop_
 _atom_site_type_symbol
 _atom_site_label
 _atom_site_symmetry_multiplicity
 _atom_site_fract_x
 _atom_site_fract_y
 _atom_site_fract_z
 _atom_site_occupancy
  Mg  Mg0  1  0.998485  0.998485  0.998485  1
  Mg  Mg1  1  0.498485  0.498485  0.498485  1
  Ti  Ti2  1  0.144333  0.144333  0.144333  1
  Ti  Ti3  1  0.644333  0.644333  0.644333  1
  Cr  Cr4  1  0.357757  0.357757  0.357757  1
  Cr  Cr5  1  0.857757  0.857757  0.857757  1
  P  P6  1  0.045065  0.456926  0.750513  1
  P  P7  1  0.456926  0.750513  0.045065  1
  P  P8  1  0.750513  0.045065  0.456926  1
  P  P9  1  0.250513  0.956926  0.545065  1
  P  P10  1  0.545065  0.250513  0.956926  1
  P  P11  1  0.956926  0.545065  0.250513  1
  O  O12  1  0.112988  0.506193  0.313800  1
  O  O13  1  0.313800  0.112988  0.506193  1
  O  O14  1  0.054338  0.258813  0.912884  1
  O  O15  1  0.506193  0.313800  0.112988  1
  O  O16  1  0.006193  0.612988  0.813800  1
  O  O17  1  0.241051  0.439059  0.588960  1
  O  O18  1  0.258813  0.912884  0.054338  1
  O  O19  1  0.439059  0.588960  0.241051  1
  O  O20  1  0.186725  0.002158  0.379949  1
  O  O21  1  0.588960  0.241051  0.439059  1
  O  O22  1  0.088960  0.939059  0.741051  1
  O  O23  1  0.379949  0.186725  0.002158  1
  O  O24  1  0.612988  0.813800  0.006193  1
  O  O25  1  0.912884  0.054338  0.258813  1
  O  O26  1  0.412884  0.758813  0.554338  1
  O  O27  1  0.813800  0.006193  0.612988  1
  O  O28  1  0.554338  0.412884  0.758813  1
  O  O29  1  0.741051  0.088960  0.939059  1
  O  O30  1  0.758813  0.554338  0.412884  1
  O  O31  1  0.002158  0.379949  0.186725  1
  O  O32  1  0.502158  0.686725  0.879949  1
  O  O33  1  0.939059  0.741051  0.088960  1
  O  O34  1  0.686725  0.879949  0.502158  1
  O  O35  1  0.879949  0.502158  0.686725  1
