# generated using pymatgen
data_Mn5(TeO6)3
_symmetry_space_group_name_H-M   'P 1'
_cell_length_a   8.42183256
_cell_length_b   8.42183250
_cell_length_c   10.42451531
_cell_angle_alpha   83.88298714
_cell_angle_beta   83.88298700
_cell_angle_gamma   61.88942963
_symmetry_Int_Tables_number   1
_chemical_formula_structural   Mn5(TeO6)3
_chemical_formula_sum   'Mn10 Te6 O36'
_cell_volume   647.11162203
_cell_formula_units_Z   2
loop_
 _symmetry_equiv_pos_site_id
 _symmetry_equiv_pos_as_xyz
  1  'x, y, z'
loop_
 _atom_site_type_symbol
 _atom_site_label
 _atom_site_symmetry_multiplicity
 _atom_site_fract_x
 _atom_site_fract_y
 _atom_site_fract_z
 _atom_site_occupancy
  Mn  Mn0  1  0.804132  0.512357  0.978840  1
  Mn  Mn1  1  0.120295  0.196155  0.478567  1
  Mn  Mn2  1  0.324647  0.364537  0.286940  1
  Mn  Mn3  1  0.973548  0.716914  0.787456  1
  Mn  Mn4  1  0.635463  0.675353  0.713060  1
  Mn  Mn5  1  0.972628  0.027372  0.000000  1
  Mn  Mn6  1  0.635467  0.364533  0.500000  1
  Mn  Mn7  1  0.283086  0.026451  0.212544  1
  Mn  Mn8  1  0.803845  0.879705  0.521433  1
  Mn  Mn9  1  0.487643  0.195868  0.021160  1
  Te  Te10  1  0.458633  0.867216  0.959461  1
  Te  Te11  1  0.803655  0.196961  0.250259  1
  Te  Te12  1  0.803039  0.196345  0.749741  1
  Te  Te13  1  0.476004  0.849290  0.459287  1
  Te  Te14  1  0.150710  0.523996  0.540713  1
  Te  Te15  1  0.132784  0.541367  0.040539  1
  O  O16  1  0.416228  0.105146  0.891015  1
  O  O17  1  0.738414  0.442116  0.811037  1
  O  O18  1  0.559453  0.618172  0.559779  1
  O  O19  1  0.737812  0.111653  0.424076  1
  O  O20  1  0.557884  0.261586  0.188963  1
  O  O21  1  0.888347  0.262188  0.575924  1
  O  O22  1  0.405173  0.792578  0.312639  1
  O  O23  1  0.024788  0.102716  0.829855  1
  O  O24  1  0.582637  0.288900  0.669897  1
  O  O25  1  0.089717  0.431160  0.390189  1
  O  O26  1  0.564093  0.630733  0.047590  1
  O  O27  1  0.518999  0.960889  0.109754  1
  O  O28  1  0.870062  0.949936  0.689267  1
  O  O29  1  0.720089  0.743290  0.867124  1
  O  O30  1  0.369266  0.435907  0.952411  1
  O  O31  1  0.204341  0.596908  0.188377  1
  O  O32  1  0.044100  0.760513  0.452522  1
  O  O33  1  0.256710  0.279911  0.132876  1
  O  O34  1  0.381828  0.440547  0.440221  1
  O  O35  1  0.239487  0.955900  0.547478  1
  O  O36  1  0.713392  0.808725  0.390891  1
  O  O37  1  0.887351  0.648129  0.634192  1
  O  O38  1  0.897284  0.975212  0.170145  1
  O  O39  1  0.403093  0.795659  0.811623  1
  O  O40  1  0.050809  0.772195  0.940959  1
  O  O41  1  0.717188  0.131011  0.923043  1
  O  O42  1  0.039111  0.481002  0.890246  1
  O  O43  1  0.207422  0.594827  0.687361  1
  O  O44  1  0.050064  0.129938  0.310733  1
  O  O45  1  0.351871  0.112649  0.365808  1
  O  O46  1  0.191275  0.286608  0.609109  1
  O  O47  1  0.868988  0.282812  0.076957  1
  O  O48  1  0.711100  0.417363  0.330103  1
  O  O49  1  0.568840  0.910283  0.609811  1
  O  O50  1  0.227805  0.949191  0.059041  1
  O  O51  1  0.894854  0.583772  0.108985  1
