# generated using pymatgen
data_Mg(Fe2O3)2
_symmetry_space_group_name_H-M   'P 1'
_cell_length_a   2.96976728
_cell_length_b   5.27662455
_cell_length_c   15.34268795
_cell_angle_alpha   90.00000000
_cell_angle_beta   90.00000000
_cell_angle_gamma   106.34424837
_symmetry_Int_Tables_number   1
_chemical_formula_structural   Mg(Fe2O3)2
_chemical_formula_sum   'Mg2 Fe8 O12'
_cell_volume   230.70923886
_cell_formula_units_Z   2
loop_
 _symmetry_equiv_pos_site_id
 _symmetry_equiv_pos_as_xyz
  1  'x, y, z'
loop_
 _atom_site_type_symbol
 _atom_site_label
 _atom_site_symmetry_multiplicity
 _atom_site_fract_x
 _atom_site_fract_y
 _atom_site_fract_z
 _atom_site_occupancy
  Mg  Mg0  1  0.651788  0.303578  0.750000  1
  Mg  Mg1  1  0.348212  0.696422  0.250000  1
  Fe  Fe2  1  0.865447  0.730897  0.046346  1
  Fe  Fe3  1  0.399657  0.799312  0.637686  1
  Fe  Fe4  1  0.134551  0.269102  0.953654  1
  Fe  Fe5  1  0.600343  0.200688  0.362315  1
  Fe  Fe6  1  0.865447  0.730897  0.453654  1
  Fe  Fe7  1  0.134551  0.269102  0.546346  1
  Fe  Fe8  1  0.600343  0.200688  0.137685  1
  Fe  Fe9  1  0.399657  0.799312  0.862314  1
  O  O10  1  0.499999  0.000000  0.500000  1
  O  O11  1  0.499999  0.000000  0.000000  1
  O  O12  1  0.036388  0.072775  0.835626  1
  O  O13  1  0.963612  0.927225  0.164375  1
  O  O14  1  0.963612  0.927225  0.335625  1
  O  O15  1  0.036388  0.072775  0.664375  1
  O  O16  1  0.786639  0.573281  0.915970  1
  O  O17  1  0.213360  0.426720  0.084030  1
  O  O18  1  0.213360  0.426720  0.415970  1
  O  O19  1  0.786639  0.573281  0.584030  1
  O  O20  1  0.298160  0.596322  0.750000  1
  O  O21  1  0.701838  0.403677  0.250000  1
