# generated using pymatgen
data_Mo2P2O9
_symmetry_space_group_name_H-M   'P 1'
_cell_length_a   6.54698741
_cell_length_b   7.96781146
_cell_length_c   14.51581722
_cell_angle_alpha   90.01519396
_cell_angle_beta   89.99977930
_cell_angle_gamma   90.00004792
_symmetry_Int_Tables_number   1
_chemical_formula_structural   Mo2P2O9
_chemical_formula_sum   'Mo8 P8 O36'
_cell_volume   757.21992060
_cell_formula_units_Z   4
loop_
 _symmetry_equiv_pos_site_id
 _symmetry_equiv_pos_as_xyz
  1  'x, y, z'
loop_
 _atom_site_type_symbol
 _atom_site_label
 _atom_site_symmetry_multiplicity
 _atom_site_fract_x
 _atom_site_fract_y
 _atom_site_fract_z
 _atom_site_occupancy
  Mo  Mo0  1  0.750001  0.356374  0.872552  1
  Mo  Mo1  1  0.250001  0.643645  0.127466  1
  Mo  Mo2  1  0.249995  0.856463  0.627432  1
  Mo  Mo3  1  0.750003  0.143528  0.372552  1
  Mo  Mo4  1  0.499996  0.000001  0.000002  1
  Mo  Mo5  1  0.500005  0.499991  0.499996  1
  Mo  Mo6  1  -0.000006  0.499991  0.499996  1
  Mo  Mo7  1  0.000004  -0.000001  0.000002  1
  P  P8  1  0.250001  0.356242  0.937882  1
  P  P9  1  0.749999  0.643806  0.062170  1
  P  P10  1  0.749997  0.856305  0.562110  1
  P  P11  1  0.250003  0.143730  0.437821  1
  P  P12  1  0.750000  0.399828  0.689375  1
  P  P13  1  0.750002  0.100230  0.189409  1
  P  P14  1  0.249999  0.899757  0.810627  1
  P  P15  1  0.250002  0.600177  0.310594  1
  O  O16  1  0.057837  0.597631  0.373443  1
  O  O17  1  0.557856  0.402377  0.626575  1
  O  O18  1  0.942166  0.097749  0.126552  1
  O  O19  1  0.442144  0.902236  0.873433  1
  O  O20  1  0.942145  0.402374  0.626573  1
  O  O21  1  0.442166  0.597626  0.373444  1
  O  O22  1  0.057855  0.902237  0.873432  1
  O  O23  1  0.557836  0.097754  0.126551  1
  O  O24  1  0.249999  0.327046  0.482632  1
  O  O25  1  0.750000  0.672944  0.517372  1
  O  O26  1  0.749999  0.827069  0.017347  1
  O  O27  1  0.249999  0.172937  0.982639  1
  O  O28  1  0.750001  0.131011  0.953017  1
  O  O29  1  0.249999  0.869007  0.046976  1
  O  O30  1  0.249999  0.631055  0.546962  1
  O  O31  1  0.750001  0.368939  0.453046  1
  O  O32  1  0.749998  0.235079  0.750628  1
  O  O33  1  0.250004  0.764925  0.249385  1
  O  O34  1  0.249995  0.735065  0.749286  1
  O  O35  1  0.750007  0.264915  0.250704  1
  O  O36  1  0.441193  0.132976  0.377896  1
  O  O37  1  0.941229  0.867021  0.622113  1
  O  O38  1  0.558805  0.633147  0.122105  1
  O  O39  1  0.058778  0.366882  0.877887  1
  O  O40  1  0.558764  0.867017  0.622109  1
  O  O41  1  0.058816  0.132974  0.377893  1
  O  O42  1  0.441230  0.366879  0.877889  1
  O  O43  1  0.941191  0.633148  0.122106  1
  O  O44  1  0.750002  0.511230  0.986937  1
  O  O45  1  0.250003  0.037185  0.735567  1
  O  O46  1  0.250000  0.462849  0.235490  1
  O  O47  1  0.750004  0.537185  0.764522  1
  O  O48  1  0.750001  0.988666  0.486941  1
  O  O49  1  0.249998  0.011252  0.513086  1
  O  O50  1  0.250000  0.488718  0.013050  1
  O  O51  1  0.749999  0.962822  0.264421  1
