# generated using pymatgen
data_Mg(FeO2)2
_symmetry_space_group_name_H-M   'P 1'
_cell_length_a   6.02653548
_cell_length_b   6.02637694
_cell_length_c   18.07425733
_cell_angle_alpha   59.99225367
_cell_angle_beta   59.99168691
_cell_angle_gamma   59.99679462
_symmetry_Int_Tables_number   1
_chemical_formula_structural   Mg(FeO2)2
_chemical_formula_sum   'Mg6 Fe12 O24'
_cell_volume   464.09429944
_cell_formula_units_Z   6
loop_
 _symmetry_equiv_pos_site_id
 _symmetry_equiv_pos_as_xyz
  1  'x, y, z'
loop_
 _atom_site_type_symbol
 _atom_site_label
 _atom_site_symmetry_multiplicity
 _atom_site_fract_x
 _atom_site_fract_y
 _atom_site_fract_z
 _atom_site_occupancy
  Mg  Mg0  1  0.120604  0.120642  0.046038  1
  Mg  Mg1  1  0.124192  0.124232  0.375778  1
  Mg  Mg2  1  0.496667  0.496644  0.003345  1
  Mg  Mg3  1  0.125411  0.125457  0.707911  1
  Mg  Mg4  1  0.877340  0.877320  0.289337  1
  Mg  Mg5  1  0.874972  0.874959  0.625056  1
  Fe  Fe6  1  0.005316  0.498064  0.166193  1
  Fe  Fe7  1  0.498023  0.498035  0.166213  1
  Fe  Fe8  1  0.001578  0.500516  0.499134  1
  Fe  Fe9  1  0.498049  0.005337  0.166188  1
  Fe  Fe10  1  0.501699  0.501717  0.331618  1
  Fe  Fe11  1  0.500514  0.500508  0.499134  1
  Fe  Fe12  1  0.003400  0.498819  0.832974  1
  Fe  Fe13  1  0.500501  0.001597  0.499134  1
  Fe  Fe14  1  0.498841  0.003326  0.832987  1
  Fe  Fe15  1  0.501944  0.501950  0.664738  1
  Fe  Fe16  1  0.498847  0.498828  0.832977  1
  Fe  Fe17  1  0.877061  0.877031  0.956287  1
  O  O18  1  0.254487  0.254503  0.090414  1
  O  O19  1  0.258082  0.258074  0.241866  1
  O  O20  1  0.254438  0.719773  0.090467  1
  O  O21  1  0.719750  0.254474  0.090458  1
  O  O22  1  0.283351  0.739018  0.246172  1
  O  O23  1  0.259510  0.259509  0.420443  1
  O  O24  1  0.739035  0.283347  0.246165  1
  O  O25  1  0.746492  0.746515  0.086872  1
  O  O26  1  0.259509  0.719614  0.420434  1
  O  O27  1  0.259793  0.259822  0.573544  1
  O  O28  1  0.739031  0.739025  0.246197  1
  O  O29  1  0.719588  0.259524  0.420434  1
  O  O30  1  0.279529  0.739980  0.580188  1
  O  O31  1  0.260803  0.260769  0.753043  1
  O  O32  1  0.739982  0.279524  0.580185  1
  O  O33  1  0.740606  0.740602  0.426054  1
  O  O34  1  0.259434  0.259425  0.907241  1
  O  O35  1  0.260758  0.719315  0.753048  1
  O  O36  1  0.739970  0.739982  0.580198  1
  O  O37  1  0.719289  0.260751  0.753050  1
  O  O38  1  0.270078  0.746739  0.912157  1
  O  O39  1  0.737994  0.737960  0.762016  1
  O  O40  1  0.746779  0.270046  0.912152  1
  O  O41  1  0.746750  0.746723  0.912158  1
