# generated using pymatgen
data_Fe2(WO4)3
_symmetry_space_group_name_H-M   'P 1'
_cell_length_a   6.98593836
_cell_length_b   8.70285924
_cell_length_c   10.40406928
_cell_angle_alpha   108.21124170
_cell_angle_beta   103.56792830
_cell_angle_gamma   103.98079848
_symmetry_Int_Tables_number   1
_chemical_formula_structural   Fe2(WO4)3
_chemical_formula_sum   'Fe4 W6 O24'
_cell_volume   549.07451507
_cell_formula_units_Z   2
loop_
 _symmetry_equiv_pos_site_id
 _symmetry_equiv_pos_as_xyz
  1  'x, y, z'
loop_
 _atom_site_type_symbol
 _atom_site_label
 _atom_site_symmetry_multiplicity
 _atom_site_fract_x
 _atom_site_fract_y
 _atom_site_fract_z
 _atom_site_occupancy
  Fe  Fe0  1  0.376321  0.959125  0.608085  1
  Fe  Fe1  1  0.623679  0.040875  0.391915  1
  Fe  Fe2  1  0.047852  0.204237  0.015376  1
  Fe  Fe3  1  0.952148  0.795763  0.984624  1
  W  W4  1  0.883139  0.902535  0.665451  1
  W  W5  1  0.116861  0.097465  0.334549  1
  W  W6  1  0.211187  0.669527  0.261779  1
  W  W7  1  0.788813  0.330473  0.738221  1
  W  W8  1  0.597527  0.257637  0.133294  1
  W  W9  1  0.402473  0.742363  0.866706  1
  O  O10  1  0.068130  0.055637  0.139749  1
  O  O11  1  0.931870  0.944363  0.860251  1
  O  O12  1  0.568022  0.133408  0.246456  1
  O  O13  1  0.431978  0.866592  0.753544  1
  O  O14  1  0.160982  0.441992  0.167355  1
  O  O15  1  0.839018  0.558008  0.832645  1
  O  O16  1  0.975931  0.255853  0.836894  1
  O  O17  1  0.024069  0.744147  0.163106  1
  O  O18  1  0.234104  0.806896  0.969606  1
  O  O19  1  0.765896  0.193104  0.030394  1
  O  O20  1  0.878415  0.002821  0.364222  1
  O  O21  1  0.121585  0.997179  0.635778  1
  O  O22  1  0.534060  0.212391  0.733173  1
  O  O23  1  0.465940  0.787609  0.266827  1
  O  O24  1  0.334558  0.221812  0.017089  1
  O  O25  1  0.665442  0.778188  0.982911  1
  O  O26  1  0.339765  0.040318  0.428042  1
  O  O27  1  0.660235  0.959682  0.571958  1
  O  O28  1  0.224984  0.725581  0.448049  1
  O  O29  1  0.775016  0.274419  0.551951  1
  O  O30  1  0.720809  0.476719  0.244183  1
  O  O31  1  0.279191  0.523281  0.755817  1
  O  O32  1  0.180386  0.318617  0.415875  1
  O  O33  1  0.819614  0.681383  0.584125  1
