# generated using pymatgen
data_Mg(MnS2)2
_symmetry_space_group_name_H-M   'P 1'
_cell_length_a   7.22518225
_cell_length_b   7.09885458
_cell_length_c   6.94705538
_cell_angle_alpha   89.00680793
_cell_angle_beta   119.94096439
_cell_angle_gamma   121.94748408
_symmetry_Int_Tables_number   1
_chemical_formula_structural   Mg(MnS2)2
_chemical_formula_sum   'Mg2 Mn4 S8'
_cell_volume   246.80162554
_cell_formula_units_Z   2
loop_
 _symmetry_equiv_pos_site_id
 _symmetry_equiv_pos_as_xyz
  1  'x, y, z'
loop_
 _atom_site_type_symbol
 _atom_site_label
 _atom_site_symmetry_multiplicity
 _atom_site_fract_x
 _atom_site_fract_y
 _atom_site_fract_z
 _atom_site_occupancy
  Mg  Mg0  1  0.999959  0.999982  0.999966  1
  Mg  Mg1  1  0.500033  0.999990  0.000024  1
  Mn  Mn2  1  0.500008  -0.000017  0.499998  1
  Mn  Mn3  1  0.500029  0.500000  0.500026  1
  Mn  Mn4  1  -0.000000  0.499988  0.000014  1
  Mn  Mn5  1  0.999902  0.499983  0.499945  1
  S  S6  1  0.027337  0.739596  0.260269  1
  S  S7  1  0.477556  0.748350  0.728233  1
  S  S8  1  0.474198  0.745531  0.254662  1
  S  S9  1  0.997860  0.727211  0.747281  1
  S  S10  1  0.525850  0.254488  0.745361  1
  S  S11  1  0.522363  0.251616  0.271737  1
  S  S12  1  0.002271  0.272838  0.252806  1
  S  S13  1  0.972683  0.260409  0.739718  1
