# generated using pymatgen
data_MgSn3(P2O7)2
_symmetry_space_group_name_H-M   'P 1'
_cell_length_a   8.06088762
_cell_length_b   7.89931299
_cell_length_c   10.20856440
_cell_angle_alpha   90.00000000
_cell_angle_beta   105.75719090
_cell_angle_gamma   90.00000000
_symmetry_Int_Tables_number   1
_chemical_formula_structural   MgSn3(P2O7)2
_chemical_formula_sum   'Mg2 Sn6 P8 O28'
_cell_volume   625.60761294
_cell_formula_units_Z   2
loop_
 _symmetry_equiv_pos_site_id
 _symmetry_equiv_pos_as_xyz
  1  'x, y, z'
loop_
 _atom_site_type_symbol
 _atom_site_label
 _atom_site_symmetry_multiplicity
 _atom_site_fract_x
 _atom_site_fract_y
 _atom_site_fract_z
 _atom_site_occupancy
  Mg  Mg0  1  0.500000  -0.000000  0.000000  1
  Mg  Mg1  1  0.500000  0.500000  0.500000  1
  Sn  Sn2  1  0.196470  0.859434  0.519417  1
  Sn  Sn3  1  0.803530  0.359434  0.980583  1
  Sn  Sn4  1  0.803530  0.140566  0.480583  1
  Sn  Sn5  1  0.196470  0.640566  0.019417  1
  Sn  Sn6  1  -0.000000  -0.000000  0.000000  1
  Sn  Sn7  1  -0.000000  0.500000  0.500000  1
  P  P8  1  0.558721  0.058637  0.700281  1
  P  P9  1  0.441279  0.558637  0.799719  1
  P  P10  1  0.441279  0.941363  0.299719  1
  P  P11  1  0.558721  0.441363  0.200281  1
  P  P12  1  0.812825  0.795687  0.671638  1
  P  P13  1  0.187175  0.295687  0.828362  1
  P  P14  1  0.187175  0.204313  0.328362  1
  P  P15  1  0.812825  0.704313  0.171638  1
  O  O16  1  0.763562  0.626631  0.595789  1
  O  O17  1  0.236438  0.126631  0.904211  1
  O  O18  1  0.236438  0.373369  0.404211  1
  O  O19  1  0.763562  0.873369  0.095789  1
  O  O20  1  0.392041  0.565218  0.643793  1
  O  O21  1  0.607959  0.065218  0.856207  1
  O  O22  1  0.607959  0.434782  0.356207  1
  O  O23  1  0.392041  0.934782  0.143793  1
  O  O24  1  0.648009  0.198119  0.637761  1
  O  O25  1  0.351991  0.698119  0.862239  1
  O  O26  1  0.351991  0.801881  0.362239  1
  O  O27  1  0.648009  0.301881  0.137761  1
  O  O28  1  0.624571  0.878275  0.658116  1
  O  O29  1  0.375429  0.378275  0.841884  1
  O  O30  1  0.375429  0.121725  0.341884  1
  O  O31  1  0.624571  0.621725  0.158116  1
  O  O32  1  0.364449  0.449199  0.137656  1
  O  O33  1  0.635551  0.949199  0.362344  1
  O  O34  1  0.635551  0.550801  0.862344  1
  O  O35  1  0.364449  0.050801  0.637656  1
  O  O36  1  0.086386  0.213470  0.179756  1
  O  O37  1  0.913614  0.713470  0.320244  1
  O  O38  1  0.913614  0.786530  0.820244  1
  O  O39  1  0.086386  0.286530  0.679756  1
  O  O40  1  0.908462  0.580261  0.097273  1
  O  O41  1  0.091538  0.080261  0.402727  1
  O  O42  1  0.091538  0.419739  0.902727  1
  O  O43  1  0.908462  0.919739  0.597273  1
