# generated using pymatgen
data_MgCr2O4
_symmetry_space_group_name_H-M   'P 1'
_cell_length_a   5.98659887
_cell_length_b   5.98662466
_cell_length_c   18.04923714
_cell_angle_alpha   60.16657277
_cell_angle_beta   60.16617321
_cell_angle_gamma   60.00065621
_symmetry_Int_Tables_number   1
_chemical_formula_structural   MgCr2O4
_chemical_formula_sum   'Mg6 Cr12 O24'
_cell_volume   458.55958347
_cell_formula_units_Z   6
loop_
 _symmetry_equiv_pos_site_id
 _symmetry_equiv_pos_as_xyz
  1  'x, y, z'
loop_
 _atom_site_type_symbol
 _atom_site_label
 _atom_site_symmetry_multiplicity
 _atom_site_fract_x
 _atom_site_fract_y
 _atom_site_fract_z
 _atom_site_occupancy
  Mg  Mg0  1  0.120551  0.120548  0.046101  1
  Mg  Mg1  1  0.120381  0.120373  0.379624  1
  Mg  Mg2  1  0.496109  0.496108  0.337238  1
  Mg  Mg3  1  0.125910  0.125908  0.707418  1
  Mg  Mg4  1  0.497122  0.497125  0.002866  1
  Mg  Mg5  1  0.877709  0.877707  0.622302  1
  Cr  Cr6  1  0.498463  0.498447  0.166144  1
  Cr  Cr7  1  0.498456  0.004664  0.166147  1
  Cr  Cr8  1  0.499099  0.499102  0.499965  1
  Cr  Cr9  1  0.004670  0.498448  0.166145  1
  Cr  Cr10  1  0.499074  0.001982  0.499964  1
  Cr  Cr11  1  0.501375  0.501426  0.665271  1
  Cr  Cr12  1  0.878919  0.878912  0.287753  1
  Cr  Cr13  1  0.500371  0.500368  0.831883  1
  Cr  Cr14  1  0.001967  0.499054  0.499981  1
  Cr  Cr15  1  0.500374  0.003586  0.831878  1
  Cr  Cr16  1  0.003563  0.500382  0.831883  1
  Cr  Cr17  1  0.878413  0.878411  0.954911  1
  O  O18  1  0.256430  0.256426  0.089773  1
  O  O19  1  0.260199  0.260190  0.239802  1
  O  O20  1  0.256446  0.717797  0.089772  1
  O  O21  1  0.717804  0.256441  0.089772  1
  O  O22  1  0.254814  0.254809  0.424040  1
  O  O23  1  0.273925  0.747623  0.243626  1
  O  O24  1  0.260208  0.260193  0.573143  1
  O  O25  1  0.747626  0.273926  0.243622  1
  O  O26  1  0.740241  0.740233  0.093083  1
  O  O27  1  0.254820  0.718266  0.424043  1
  O  O28  1  0.718277  0.254816  0.424041  1
  O  O29  1  0.747584  0.747584  0.243650  1
  O  O30  1  0.261203  0.261215  0.753800  1
  O  O31  1  0.284014  0.737353  0.580442  1
  O  O32  1  0.737348  0.284013  0.580446  1
  O  O33  1  0.260978  0.260986  0.905671  1
  O  O34  1  0.740896  0.740873  0.425762  1
  O  O35  1  0.261185  0.716167  0.753808  1
  O  O36  1  0.716161  0.261202  0.753806  1
  O  O37  1  0.737342  0.737341  0.580444  1
  O  O38  1  0.272941  0.749155  0.909580  1
  O  O39  1  0.749147  0.272943  0.909580  1
  O  O40  1  0.738755  0.738761  0.761231  1
  O  O41  1  0.749127  0.749136  0.909591  1
