# generated using pymatgen
data_CrAs2O7
_symmetry_space_group_name_H-M   'P 1'
_cell_length_a   7.05791327
_cell_length_b   9.01661140
_cell_length_c   9.41481194
_cell_angle_alpha   90.00000000
_cell_angle_beta   106.08035151
_cell_angle_gamma   90.00000000
_symmetry_Int_Tables_number   1
_chemical_formula_structural   CrAs2O7
_chemical_formula_sum   'Cr4 As8 O28'
_cell_volume   575.70214985
_cell_formula_units_Z   4
loop_
 _symmetry_equiv_pos_site_id
 _symmetry_equiv_pos_as_xyz
  1  'x, y, z'
loop_
 _atom_site_type_symbol
 _atom_site_label
 _atom_site_symmetry_multiplicity
 _atom_site_fract_x
 _atom_site_fract_y
 _atom_site_fract_z
 _atom_site_occupancy
  Cr  Cr0  1  0.804652  0.076877  0.712240  1
  Cr  Cr1  1  0.195348  0.576877  0.787760  1
  Cr  Cr2  1  0.195348  0.923123  0.287760  1
  Cr  Cr3  1  0.804652  0.423123  0.212240  1
  As  As4  1  0.414920  0.250317  0.764424  1
  As  As5  1  0.585080  0.750317  0.735576  1
  As  As6  1  0.585080  0.749683  0.235576  1
  As  As7  1  0.414920  0.249683  0.264424  1
  As  As8  1  0.025364  0.299576  0.961646  1
  As  As9  1  0.974636  0.799576  0.538354  1
  As  As10  1  0.974636  0.700424  0.038354  1
  As  As11  1  0.025364  0.200424  0.461646  1
  O  O12  1  0.836620  0.324650  0.046125  1
  O  O13  1  0.163380  0.824650  0.453875  1
  O  O14  1  0.163380  0.675350  0.953875  1
  O  O15  1  0.836620  0.175350  0.546125  1
  O  O16  1  0.377893  0.446349  0.758500  1
  O  O17  1  0.622107  0.946349  0.741500  1
  O  O18  1  0.622107  0.553651  0.241500  1
  O  O19  1  0.377893  0.053651  0.258500  1
  O  O20  1  0.376158  0.165027  0.907226  1
  O  O21  1  0.623842  0.665027  0.592774  1
  O  O22  1  0.623842  0.834973  0.092774  1
  O  O23  1  0.376158  0.334973  0.407226  1
  O  O24  1  0.243537  0.172198  0.599436  1
  O  O25  1  0.756463  0.672198  0.900564  1
  O  O26  1  0.756463  0.827802  0.400564  1
  O  O27  1  0.243537  0.327802  0.099436  1
  O  O28  1  0.019269  0.083059  0.320011  1
  O  O29  1  0.980731  0.583059  0.179989  1
  O  O30  1  0.980731  0.916941  0.679989  1
  O  O31  1  0.019269  0.416941  0.820011  1
  O  O32  1  0.638485  0.256454  0.225797  1
  O  O33  1  0.361515  0.756454  0.274203  1
  O  O34  1  0.361515  0.743546  0.774203  1
  O  O35  1  0.638485  0.243546  0.725797  1
  O  O36  1  0.985879  0.380182  0.388344  1
  O  O37  1  0.014121  0.880182  0.111656  1
  O  O38  1  0.014121  0.619818  0.611656  1
  O  O39  1  0.985879  0.119818  0.888344  1
