# generated using pymatgen
data_MgMn(Si2O5)2
_symmetry_space_group_name_H-M   'P 1'
_cell_length_a   7.39268599
_cell_length_b   7.39268599
_cell_length_c   14.88024720
_cell_angle_alpha   90.00000000
_cell_angle_beta   90.00000000
_cell_angle_gamma   90.00000000
_symmetry_Int_Tables_number   1
_chemical_formula_structural   MgMn(Si2O5)2
_chemical_formula_sum   'Mg4 Mn4 Si16 O40'
_cell_volume   813.23238539
_cell_formula_units_Z   4
loop_
 _symmetry_equiv_pos_site_id
 _symmetry_equiv_pos_as_xyz
  1  'x, y, z'
loop_
 _atom_site_type_symbol
 _atom_site_label
 _atom_site_symmetry_multiplicity
 _atom_site_fract_x
 _atom_site_fract_y
 _atom_site_fract_z
 _atom_site_occupancy
  Mg  Mg0  1  0.250000  0.750000  0.500000  1
  Mg  Mg1  1  0.750000  0.250000  0.500000  1
  Mg  Mg2  1  0.750000  0.250000  -0.000000  1
  Mg  Mg3  1  0.250000  0.750000  -0.000000  1
  Mn  Mn4  1  0.250000  0.250000  0.562997  1
  Mn  Mn5  1  0.750000  0.750000  0.937003  1
  Mn  Mn6  1  0.750000  0.750000  0.437003  1
  Mn  Mn7  1  0.250000  0.250000  0.062997  1
  Si  Si8  1  0.908000  0.490519  0.645057  1
  Si  Si9  1  0.592000  0.009481  0.645057  1
  Si  Si10  1  0.990519  0.408000  0.854943  1
  Si  Si11  1  0.490519  0.592000  0.645057  1
  Si  Si12  1  0.009481  0.908000  0.645057  1
  Si  Si13  1  0.092000  0.990519  0.854943  1
  Si  Si14  1  0.408000  0.509481  0.854943  1
  Si  Si15  1  0.509481  0.092000  0.854943  1
  Si  Si16  1  0.092000  0.509481  0.354943  1
  Si  Si17  1  0.408000  0.990519  0.354943  1
  Si  Si18  1  0.009481  0.592000  0.145057  1
  Si  Si19  1  0.509481  0.408000  0.354943  1
  Si  Si20  1  0.990519  0.092000  0.354943  1
  Si  Si21  1  0.908000  0.009481  0.145057  1
  Si  Si22  1  0.592000  0.490519  0.145057  1
  Si  Si23  1  0.490519  0.908000  0.145057  1
  O  O24  1  0.975517  0.337360  0.575276  1
  O  O25  1  0.524483  0.162640  0.575276  1
  O  O26  1  0.837360  0.475517  0.924724  1
  O  O27  1  0.337360  0.524483  0.575276  1
  O  O28  1  0.162640  0.975517  0.575276  1
  O  O29  1  0.024483  0.837360  0.924724  1
  O  O30  1  0.475517  0.662640  0.924724  1
  O  O31  1  0.662640  0.024483  0.924724  1
  O  O32  1  0.024483  0.662640  0.424724  1
  O  O33  1  0.475517  0.837360  0.424724  1
  O  O34  1  0.162640  0.524483  0.075276  1
  O  O35  1  0.662640  0.475517  0.424724  1
  O  O36  1  0.837360  0.024483  0.424724  1
  O  O37  1  0.975517  0.162640  0.075276  1
  O  O38  1  0.524483  0.337360  0.075276  1
  O  O39  1  0.005034  0.310448  0.374450  1
  O  O40  1  0.337360  0.975517  0.075276  1
  O  O41  1  0.505034  0.810448  0.625550  1
  O  O42  1  0.189552  0.494966  0.874450  1
  O  O43  1  0.689552  0.505034  0.625550  1
  O  O44  1  0.810448  0.994966  0.625550  1
  O  O45  1  0.005034  0.189552  0.874450  1
  O  O46  1  0.494966  0.310448  0.874450  1
  O  O47  1  0.310448  0.005034  0.874450  1
  O  O48  1  0.442866  0.942866  0.250000  1
  O  O49  1  0.557134  0.442866  0.250000  1
  O  O50  1  0.942866  0.057135  0.250000  1
  O  O51  1  0.057135  0.557134  0.250000  1
  O  O52  1  0.557134  0.057135  0.750000  1
  O  O53  1  0.442866  0.557134  0.750000  1
  O  O54  1  0.057135  0.942866  0.750000  1
  O  O55  1  0.942866  0.442866  0.750000  1
  O  O56  1  0.689552  0.994966  0.125550  1
  O  O57  1  0.505034  0.689552  0.125550  1
  O  O58  1  0.994966  0.810448  0.125550  1
  O  O59  1  0.189552  0.005034  0.374450  1
  O  O60  1  0.310448  0.494966  0.374450  1
  O  O61  1  0.810448  0.505034  0.125550  1
  O  O62  1  0.494966  0.189552  0.374450  1
  O  O63  1  0.994966  0.689552  0.625550  1
