# generated using pymatgen
data_MgV4O6
_symmetry_space_group_name_H-M   'P 1'
_cell_length_a   2.93633687
_cell_length_b   5.26949583
_cell_length_c   15.70180385
_cell_angle_alpha   90.00000000
_cell_angle_beta   90.00000000
_cell_angle_gamma   106.17764995
_symmetry_Int_Tables_number   1
_chemical_formula_structural   MgV4O6
_chemical_formula_sum   'Mg2 V8 O12'
_cell_volume   233.33384985
_cell_formula_units_Z   2
loop_
 _symmetry_equiv_pos_site_id
 _symmetry_equiv_pos_as_xyz
  1  'x, y, z'
loop_
 _atom_site_type_symbol
 _atom_site_label
 _atom_site_symmetry_multiplicity
 _atom_site_fract_x
 _atom_site_fract_y
 _atom_site_fract_z
 _atom_site_occupancy
  Mg  Mg0  1  0.650657  0.301314  0.750000  1
  Mg  Mg1  1  0.349343  0.698686  0.250000  1
  V  V2  1  0.865276  0.730556  0.047049  1
  V  V3  1  0.398190  0.796378  0.639169  1
  V  V4  1  0.134722  0.269443  0.952951  1
  V  V5  1  0.601810  0.203622  0.360832  1
  V  V6  1  0.865276  0.730556  0.452951  1
  V  V7  1  0.134722  0.269443  0.547049  1
  V  V8  1  0.601810  0.203622  0.139168  1
  V  V9  1  0.398190  0.796378  0.860831  1
  O  O10  1  0.499999  0.000000  0.500000  1
  O  O11  1  0.499999  0.000000  -0.000000  1
  O  O12  1  0.037034  0.074066  0.836515  1
  O  O13  1  0.962966  0.925934  0.163486  1
  O  O14  1  0.962966  0.925934  0.336514  1
  O  O15  1  0.037034  0.074066  0.663486  1
  O  O16  1  0.777396  0.554794  0.920585  1
  O  O17  1  0.222603  0.445207  0.079415  1
  O  O18  1  0.222603  0.445207  0.420585  1
  O  O19  1  0.777396  0.554794  0.579415  1
  O  O20  1  0.291352  0.582704  0.750000  1
  O  O21  1  0.708646  0.417295  0.250000  1
