# generated using pymatgen
data_P2W2O9
_symmetry_space_group_name_H-M   'P 1'
_cell_length_a   6.58940308
_cell_length_b   7.93062045
_cell_length_c   14.62967008
_cell_angle_alpha   90.00797167
_cell_angle_beta   89.99978312
_cell_angle_gamma   90.00011439
_symmetry_Int_Tables_number   1
_chemical_formula_structural   P2W2O9
_chemical_formula_sum   'P8 W8 O36'
_cell_volume   764.51809385
_cell_formula_units_Z   4
loop_
 _symmetry_equiv_pos_site_id
 _symmetry_equiv_pos_as_xyz
  1  'x, y, z'
loop_
 _atom_site_type_symbol
 _atom_site_label
 _atom_site_symmetry_multiplicity
 _atom_site_fract_x
 _atom_site_fract_y
 _atom_site_fract_z
 _atom_site_occupancy
  P  P0  1  0.250001  0.357583  0.937689  1
  P  P1  1  0.750000  0.642428  0.062332  1
  P  P2  1  0.749998  0.857605  0.562308  1
  P  P3  1  0.250001  0.142386  0.437674  1
  P  P4  1  0.750001  0.400874  0.688851  1
  P  P5  1  0.750002  0.099189  0.188849  1
  P  P6  1  0.249997  0.900805  0.811161  1
  P  P7  1  0.250002  0.599134  0.311135  1
  W  W8  1  0.750004  0.358387  0.872013  1
  W  W9  1  0.249998  0.641627  0.127990  1
  W  W10  1  0.249996  0.858431  0.627984  1
  W  W11  1  0.750002  0.141558  0.372011  1
  W  W12  1  0.500000  0.000004  0.000003  1
  W  W13  1  0.499999  0.499996  0.499993  1
  W  W14  1  0.000001  0.499997  0.499992  1
  W  W15  1  -0.000001  0.000003  0.000004  1
  O  O16  1  0.059019  0.596553  0.373608  1
  O  O17  1  0.559024  0.403454  0.626386  1
  O  O18  1  0.940981  0.096650  0.126383  1
  O  O19  1  0.440971  0.903349  0.873622  1
  O  O20  1  0.940976  0.403449  0.626384  1
  O  O21  1  0.440985  0.596548  0.373608  1
  O  O22  1  0.059024  0.903348  0.873622  1
  O  O23  1  0.559021  0.096650  0.126383  1
  O  O24  1  0.249999  0.326557  0.483028  1
  O  O25  1  0.750001  0.673434  0.516961  1
  O  O26  1  0.749999  0.826563  0.016964  1
  O  O27  1  0.250001  0.173443  0.983047  1
  O  O28  1  0.750000  0.131510  0.952915  1
  O  O29  1  0.250000  0.868504  0.047090  1
  O  O30  1  0.249999  0.631541  0.547065  1
  O  O31  1  0.750000  0.368457  0.452926  1
  O  O32  1  0.749999  0.236060  0.749627  1
  O  O33  1  0.250005  0.763955  0.250374  1
  O  O34  1  0.249994  0.736033  0.750328  1
  O  O35  1  0.750004  0.263961  0.249675  1
  O  O36  1  0.440545  0.132487  0.378846  1
  O  O37  1  0.940545  0.867504  0.621151  1
  O  O38  1  0.559458  0.632580  0.121162  1
  O  O39  1  0.059453  0.367431  0.878850  1
  O  O40  1  0.559447  0.867500  0.621146  1
  O  O41  1  0.059460  0.132485  0.378843  1
  O  O42  1  0.440552  0.367429  0.878851  1
  O  O43  1  0.940541  0.632582  0.121162  1
  O  O44  1  0.750002  0.509467  0.987610  1
  O  O45  1  0.249998  0.039608  0.736919  1
  O  O46  1  0.249999  0.460393  0.236860  1
  O  O47  1  0.750005  0.539620  0.763133  1
  O  O48  1  0.750001  0.990472  0.487585  1
  O  O49  1  0.249998  0.009504  0.512411  1
  O  O50  1  0.250002  0.490522  0.012399  1
  O  O51  1  0.750001  0.960385  0.263081  1
