# generated using pymatgen
data_Sn3(P2O7)2
_symmetry_space_group_name_H-M   'P 1'
_cell_length_a   8.92765610
_cell_length_b   8.93317955
_cell_length_c   9.17987705
_cell_angle_alpha   90.00000000
_cell_angle_beta   110.12725872
_cell_angle_gamma   90.00000000
_symmetry_Int_Tables_number   1
_chemical_formula_structural   Sn3(P2O7)2
_chemical_formula_sum   'Sn6 P8 O28'
_cell_volume   687.40691302
_cell_formula_units_Z   2
loop_
 _symmetry_equiv_pos_site_id
 _symmetry_equiv_pos_as_xyz
  1  'x, y, z'
loop_
 _atom_site_type_symbol
 _atom_site_label
 _atom_site_symmetry_multiplicity
 _atom_site_fract_x
 _atom_site_fract_y
 _atom_site_fract_z
 _atom_site_occupancy
  Sn  Sn0  1  0.755979  0.395096  0.416904  1
  Sn  Sn1  1  0.755980  0.104904  0.916904  1
  Sn  Sn2  1  0.244021  0.895096  0.083096  1
  Sn  Sn3  1  -0.000000  0.500000  -0.000000  1
  Sn  Sn4  1  0.244020  0.604904  0.583095  1
  Sn  Sn5  1  -0.000000  0.000000  0.500000  1
  P  P6  1  0.114513  0.305195  0.322734  1
  P  P7  1  0.352645  0.002768  0.777440  1
  P  P8  1  0.352646  0.497232  0.277440  1
  P  P9  1  0.647355  0.502768  0.722560  1
  P  P10  1  0.647355  0.997232  0.222560  1
  P  P11  1  0.885487  0.694805  0.677267  1
  P  P12  1  0.114514  0.194805  0.822734  1
  P  P13  1  0.885486  0.805195  0.177266  1
  O  O14  1  0.767728  0.448432  0.881254  1
  O  O15  1  0.994525  0.334729  0.155737  1
  O  O16  1  0.899987  0.915434  0.056237  1
  O  O17  1  0.902695  0.642216  0.135284  1
  O  O18  1  0.994524  0.165271  0.655737  1
  O  O19  1  0.899987  0.584565  0.556238  1
  O  O20  1  0.005475  0.665271  0.844263  1
  O  O21  1  0.100013  0.084565  0.943763  1
  O  O22  1  0.097304  0.357784  0.864715  1
  O  O23  1  0.005474  0.834729  0.344263  1
  O  O24  1  0.100014  0.415434  0.443762  1
  O  O25  1  0.290322  0.168965  0.810603  1
  O  O26  1  0.348272  0.893566  0.904054  1
  O  O27  1  0.097304  0.142216  0.364715  1
  O  O28  1  0.232272  0.948432  0.618746  1
  O  O29  1  0.484391  0.524337  0.734153  1
  O  O30  1  0.290322  0.331035  0.310604  1
  O  O31  1  0.651727  0.106434  0.095945  1
  O  O32  1  0.232272  0.551568  0.118746  1
  O  O33  1  0.515609  0.024337  0.765847  1
  O  O34  1  0.484392  0.975663  0.234153  1
  O  O35  1  0.709679  0.831035  0.189397  1
  O  O36  1  0.651728  0.393566  0.595946  1
  O  O37  1  0.709678  0.668965  0.689396  1
  O  O38  1  0.515609  0.475663  0.265847  1
  O  O39  1  0.767727  0.051568  0.381253  1
  O  O40  1  0.902696  0.857784  0.635285  1
  O  O41  1  0.348272  0.606434  0.404054  1
