# generated using pymatgen
data_MgV2(PO5)2
_symmetry_space_group_name_H-M   'P 1'
_cell_length_a   6.72798956
_cell_length_b   6.72798953
_cell_length_c   8.82526466
_cell_angle_alpha   102.67663020
_cell_angle_beta   102.67663011
_cell_angle_gamma   115.10565704
_symmetry_Int_Tables_number   1
_chemical_formula_structural   MgV2(PO5)2
_chemical_formula_sum   'Mg2 V4 P4 O20'
_cell_volume   330.09931481
_cell_formula_units_Z   2
loop_
 _symmetry_equiv_pos_site_id
 _symmetry_equiv_pos_as_xyz
  1  'x, y, z'
loop_
 _atom_site_type_symbol
 _atom_site_label
 _atom_site_symmetry_multiplicity
 _atom_site_fract_x
 _atom_site_fract_y
 _atom_site_fract_z
 _atom_site_occupancy
  Mg  Mg0  1  0.502133  0.002133  0.500000  1
  Mg  Mg1  1  0.252133  0.252133  1.000000  1
  V  V2  1  0.877575  0.609685  0.259578  1
  V  V3  1  0.350107  0.617996  0.740422  1
  V  V4  1  0.867996  0.100107  0.240422  1
  V  V5  1  0.859685  0.627575  0.759578  1
  P  P6  1  0.037163  0.037718  0.584353  1
  P  P7  1  0.702810  0.203365  0.915647  1
  P  P8  1  0.453365  0.452810  0.415647  1
  P  P9  1  0.287718  0.787163  0.084353  1
  O  O10  1  0.583011  0.553004  0.303194  1
  O  O11  1  0.657614  0.662500  0.834838  1
  O  O12  1  0.307457  0.587758  0.970139  1
  O  O13  1  0.803004  0.333011  0.803194  1
  O  O14  1  0.215221  0.242392  0.294868  1
  O  O15  1  0.426857  0.649711  0.527030  1
  O  O16  1  0.072777  0.577662  0.665162  1
  O  O17  1  0.827662  0.822777  0.165162  1
  O  O18  1  0.912500  0.407614  0.334838  1
  O  O19  1  0.170353  0.697525  0.205132  1
  O  O20  1  0.249809  0.279818  0.696806  1
  O  O21  1  0.492392  0.965221  0.794868  1
  O  O22  1  0.947525  0.920353  0.705132  1
  O  O23  1  0.149828  0.872682  0.972970  1
  O  O24  1  0.122682  0.899828  0.472970  1
  O  O25  1  0.899711  0.176857  0.027030  1
  O  O26  1  0.837758  0.057457  0.470139  1
  O  O27  1  0.617619  0.337319  0.029861  1
  O  O28  1  0.529818  -0.000191  0.196806  1
  O  O29  1  0.587319  0.367619  0.529861  1
