# generated using pymatgen
data_MgV2O4
_symmetry_space_group_name_H-M   'P 1'
_cell_length_a   6.05286122
_cell_length_b   6.06659308
_cell_length_c   18.17088094
_cell_angle_alpha   60.06955770
_cell_angle_beta   59.98537107
_cell_angle_gamma   60.08366890
_symmetry_Int_Tables_number   1
_chemical_formula_structural   MgV2O4
_chemical_formula_sum   'Mg6 V12 O24'
_cell_volume   472.30261763
_cell_formula_units_Z   6
loop_
 _symmetry_equiv_pos_site_id
 _symmetry_equiv_pos_as_xyz
  1  'x, y, z'
loop_
 _atom_site_type_symbol
 _atom_site_label
 _atom_site_symmetry_multiplicity
 _atom_site_fract_x
 _atom_site_fract_y
 _atom_site_fract_z
 _atom_site_occupancy
  Mg  Mg0  1  0.119667  0.119119  0.046615  1
  Mg  Mg1  1  0.124728  0.125710  0.375136  1
  Mg  Mg2  1  0.498015  0.497290  0.002913  1
  Mg  Mg3  1  0.125221  0.125919  0.707889  1
  Mg  Mg4  1  0.876811  0.877476  0.289665  1
  Mg  Mg5  1  0.875935  0.875352  0.624397  1
  V  V6  1  0.003367  0.498224  0.166575  1
  V  V7  1  0.498081  0.496790  0.166950  1
  V  V8  1  0.001703  0.500660  0.499089  1
  V  V9  1  0.498787  0.004596  0.166048  1
  V  V10  1  0.501380  0.500040  0.332413  1
  V  V11  1  0.500825  0.500952  0.499251  1
  V  V12  1  0.001414  0.499935  0.833482  1
  V  V13  1  0.500960  0.000492  0.499248  1
  V  V14  1  0.498796  0.002304  0.833373  1
  V  V15  1  0.501149  0.501835  0.665542  1
  V  V16  1  0.498104  0.499853  0.833300  1
  V  V17  1  0.876004  0.874945  0.957760  1
  O  O18  1  0.254395  0.253876  0.090966  1
  O  O19  1  0.261441  0.260837  0.241589  1
  O  O20  1  0.253109  0.721024  0.089215  1
  O  O21  1  0.719980  0.253198  0.089780  1
  O  O22  1  0.281223  0.741440  0.246402  1
  O  O23  1  0.260038  0.261218  0.419614  1
  O  O24  1  0.741410  0.280709  0.246428  1
  O  O25  1  0.742164  0.742446  0.088528  1
  O  O26  1  0.259227  0.721248  0.419940  1
  O  O27  1  0.263490  0.257262  0.572554  1
  O  O28  1  0.740011  0.740672  0.245644  1
  O  O29  1  0.720538  0.261547  0.419393  1
  O  O30  1  0.279298  0.739090  0.580410  1
  O  O31  1  0.260963  0.259879  0.753155  1
  O  O32  1  0.741823  0.278406  0.579606  1
  O  O33  1  0.738066  0.743987  0.426254  1
  O  O34  1  0.260792  0.257468  0.907023  1
  O  O35  1  0.258935  0.721730  0.753117  1
  O  O36  1  0.740847  0.739628  0.580042  1
  O  O37  1  0.720323  0.262325  0.752650  1
  O  O38  1  0.272338  0.742963  0.912405  1
  O  O39  1  0.737360  0.740826  0.761332  1
  O  O40  1  0.745573  0.271630  0.912444  1
  O  O41  1  0.745707  0.745094  0.911864  1
