# generated using pymatgen
data_Ti9O13
_symmetry_space_group_name_H-M   'P 1'
_cell_length_a   2.91898717
_cell_length_b   5.12066055
_cell_length_c   17.75140927
_cell_angle_alpha   98.11246617
_cell_angle_beta   90.02271137
_cell_angle_gamma   106.60839816
_symmetry_Int_Tables_number   1
_chemical_formula_structural   Ti9O13
_chemical_formula_sum   'Ti9 O13'
_cell_volume   251.48680765
_cell_formula_units_Z   1
loop_
 _symmetry_equiv_pos_site_id
 _symmetry_equiv_pos_as_xyz
  1  'x, y, z'
loop_
 _atom_site_type_symbol
 _atom_site_label
 _atom_site_symmetry_multiplicity
 _atom_site_fract_x
 _atom_site_fract_y
 _atom_site_fract_z
 _atom_site_occupancy
  Ti  Ti0  1  0.500000  0.000000  0.500000  1
  Ti  Ti1  1  0.655812  0.311892  0.037049  1
  Ti  Ti2  1  0.344188  0.688108  0.962951  1
  Ti  Ti3  1  0.757561  0.514346  0.423457  1
  Ti  Ti4  1  0.242439  0.485654  0.576543  1
  Ti  Ti5  1  0.931720  0.863622  0.127860  1
  Ti  Ti6  1  0.068280  0.136378  0.872140  1
  Ti  Ti7  1  0.980902  0.963380  0.324952  1
  Ti  Ti8  1  0.019098  0.036620  0.675048  1
  O  O9  1  0.000000  0.000000  0.000000  1
  O  O10  1  0.901853  0.803745  0.228071  1
  O  O11  1  0.098147  0.196255  0.771929  1
  O  O12  1  0.297682  0.595585  0.080074  1
  O  O13  1  0.702318  0.404415  0.919926  1
  O  O14  1  0.566627  0.131923  0.130749  1
  O  O15  1  0.433373  0.868077  0.869251  1
  O  O16  1  0.619760  0.237270  0.330426  1
  O  O17  1  0.380240  0.762730  0.669574  1
  O  O18  1  0.385625  0.770252  0.383787  1
  O  O19  1  0.614375  0.229748  0.616213  1
  O  O20  1  0.130005  0.259443  0.464284  1
  O  O21  1  0.869995  0.740557  0.535716  1
