# generated using pymatgen
data_Cr3(FeO6)2
_symmetry_space_group_name_H-M   'P 1'
_cell_length_a   6.69826934
_cell_length_b   8.49094914
_cell_length_c   9.92509227
_cell_angle_alpha   107.57466312
_cell_angle_beta   104.57947802
_cell_angle_gamma   103.09675903
_symmetry_Int_Tables_number   1
_chemical_formula_structural   Cr3(FeO6)2
_chemical_formula_sum   'Cr6 Fe4 O24'
_cell_volume   492.00124491
_cell_formula_units_Z   2
loop_
 _symmetry_equiv_pos_site_id
 _symmetry_equiv_pos_as_xyz
  1  'x, y, z'
loop_
 _atom_site_type_symbol
 _atom_site_label
 _atom_site_symmetry_multiplicity
 _atom_site_fract_x
 _atom_site_fract_y
 _atom_site_fract_z
 _atom_site_occupancy
  Cr  Cr0  1  0.883658  0.894571  0.661719  1
  Cr  Cr1  1  0.116342  0.105429  0.338281  1
  Cr  Cr2  1  0.217695  0.665518  0.260543  1
  Cr  Cr3  1  0.782305  0.334482  0.739457  1
  Cr  Cr4  1  0.597181  0.256959  0.134531  1
  Cr  Cr5  1  0.402819  0.743041  0.865469  1
  Fe  Fe6  1  0.376451  0.958279  0.606942  1
  Fe  Fe7  1  0.623549  0.041721  0.393058  1
  Fe  Fe8  1  0.050169  0.212592  0.018283  1
  Fe  Fe9  1  0.949831  0.787408  0.981717  1
  O  O10  1  0.074424  0.053846  0.148998  1
  O  O11  1  0.925576  0.946154  0.851002  1
  O  O12  1  0.570550  0.134987  0.240645  1
  O  O13  1  0.429450  0.865013  0.759355  1
  O  O14  1  0.179953  0.452855  0.182146  1
  O  O15  1  0.820047  0.547145  0.817854  1
  O  O16  1  0.979225  0.282155  0.840982  1
  O  O17  1  0.020775  0.717845  0.159018  1
  O  O18  1  0.239168  0.799722  0.962962  1
  O  O19  1  0.760832  0.200278  0.037038  1
  O  O20  1  0.892398  0.002653  0.361184  1
  O  O21  1  0.107602  0.997347  0.638816  1
  O  O22  1  0.543550  0.217747  0.735909  1
  O  O23  1  0.456450  0.782253  0.264091  1
  O  O24  1  0.344658  0.220180  0.017307  1
  O  O25  1  0.655342  0.779820  0.982693  1
  O  O26  1  0.333081  0.050051  0.429276  1
  O  O27  1  0.666919  0.949949  0.570724  1
  O  O28  1  0.222454  0.719615  0.438269  1
  O  O29  1  0.777546  0.280385  0.561731  1
  O  O30  1  0.703329  0.458593  0.243385  1
  O  O31  1  0.296671  0.541407  0.756615  1
  O  O32  1  0.165870  0.310058  0.413035  1
  O  O33  1  0.834130  0.689942  0.586965  1
