# generated using pymatgen
data_MgSn3P3O13
_symmetry_space_group_name_H-M   'P 1'
_cell_length_a   6.82133839
_cell_length_b   7.86694310
_cell_length_c   10.48996727
_cell_angle_alpha   97.58238340
_cell_angle_beta   90.00000000
_cell_angle_gamma   90.00000000
_symmetry_Int_Tables_number   1
_chemical_formula_structural   MgSn3P3O13
_chemical_formula_sum   'Mg2 Sn6 P6 O26'
_cell_volume   558.00184488
_cell_formula_units_Z   2
loop_
 _symmetry_equiv_pos_site_id
 _symmetry_equiv_pos_as_xyz
  1  'x, y, z'
loop_
 _atom_site_type_symbol
 _atom_site_label
 _atom_site_symmetry_multiplicity
 _atom_site_fract_x
 _atom_site_fract_y
 _atom_site_fract_z
 _atom_site_occupancy
  Mg  Mg0  1  0.750000  0.564461  0.225264  1
  Mg  Mg1  1  0.250000  0.435539  0.774736  1
  Sn  Sn2  1  0.250000  0.316052  0.256657  1
  Sn  Sn3  1  0.750000  0.683948  0.743343  1
  Sn  Sn4  1  0.250000  0.803001  0.392634  1
  Sn  Sn5  1  0.500000  -0.000000  -0.000000  1
  Sn  Sn6  1  0.750000  0.196999  0.607366  1
  Sn  Sn7  1  -0.000000  0.000000  0.000000  1
  P  P8  1  0.250000  0.304535  0.523013  1
  P  P9  1  0.750000  0.695465  0.476987  1
  P  P10  1  0.250000  0.789815  0.730428  1
  P  P11  1  0.750000  0.210185  0.269572  1
  P  P12  1  0.750000  0.351009  0.927340  1
  P  P13  1  0.250000  0.648991  0.072660  1
  O  O14  1  0.750000  0.446225  0.802232  1
  O  O15  1  0.574732  0.689352  0.382671  1
  O  O16  1  0.250000  0.873324  0.607842  1
  O  O17  1  0.562614  0.236273  0.912577  1
  O  O18  1  0.750000  0.539548  0.557991  1
  O  O19  1  0.750000  0.875576  0.893626  1
  O  O20  1  0.250000  0.460452  0.442009  1
  O  O21  1  0.062614  0.763727  0.087423  1
  O  O22  1  0.250000  0.151297  0.410579  1
  O  O23  1  0.750000  0.848703  0.589421  1
  O  O24  1  0.071356  0.666598  0.741052  1
  O  O25  1  0.250000  0.124424  0.106374  1
  O  O26  1  0.571356  0.333402  0.258948  1
  O  O27  1  0.750000  0.483560  0.045029  1
  O  O28  1  0.750000  0.126676  0.392158  1
  O  O29  1  0.437386  0.763727  0.087423  1
  O  O30  1  0.925268  0.689352  0.382671  1
  O  O31  1  0.425268  0.310648  0.617329  1
  O  O32  1  0.428644  0.666598  0.741052  1
  O  O33  1  0.250000  0.553775  0.197768  1
  O  O34  1  0.750000  0.068176  0.147309  1
  O  O35  1  0.250000  0.931824  0.852691  1
  O  O36  1  0.928644  0.333402  0.258948  1
  O  O37  1  0.937386  0.236273  0.912577  1
  O  O38  1  0.074732  0.310648  0.617329  1
  O  O39  1  0.250000  0.516440  0.954971  1
