# generated using pymatgen
data_Fe2P2O9
_symmetry_space_group_name_H-M   'P 1'
_cell_length_a   6.43118381
_cell_length_b   7.82219709
_cell_length_c   14.10660973
_cell_angle_alpha   90.04429374
_cell_angle_beta   90.00135022
_cell_angle_gamma   89.97289470
_symmetry_Int_Tables_number   1
_chemical_formula_structural   Fe2P2O9
_chemical_formula_sum   'Fe8 P8 O36'
_cell_volume   709.64663833
_cell_formula_units_Z   4
loop_
 _symmetry_equiv_pos_site_id
 _symmetry_equiv_pos_as_xyz
  1  'x, y, z'
loop_
 _atom_site_type_symbol
 _atom_site_label
 _atom_site_symmetry_multiplicity
 _atom_site_fract_x
 _atom_site_fract_y
 _atom_site_fract_z
 _atom_site_occupancy
  Fe  Fe0  1  0.750532  0.344879  0.878723  1
  Fe  Fe1  1  0.249421  0.655001  0.121003  1
  Fe  Fe2  1  0.249558  0.843806  0.621823  1
  Fe  Fe3  1  0.750435  0.156060  0.378343  1
  Fe  Fe4  1  0.499970  0.999977  0.999808  1
  Fe  Fe5  1  0.499989  0.499809  0.500313  1
  Fe  Fe6  1  0.000030  0.499806  0.500313  1
  Fe  Fe7  1  0.000038  0.999991  0.999842  1
  P  P8  1  0.250293  0.350612  0.939522  1
  P  P9  1  0.749684  0.649489  0.059880  1
  P  P10  1  0.749687  0.851826  0.559658  1
  P  P11  1  0.250319  0.148038  0.440647  1
  P  P12  1  0.749893  0.394626  0.689242  1
  P  P13  1  0.750075  0.106295  0.188615  1
  P  P14  1  0.249951  0.893905  0.811073  1
  P  P15  1  0.250109  0.605433  0.311275  1
  O  O16  1  0.052708  0.588491  0.372416  1
  O  O17  1  0.552392  0.411214  0.628163  1
  O  O18  1  0.947733  0.089113  0.127635  1
  O  O19  1  0.447481  0.910796  0.872056  1
  O  O20  1  0.947452  0.411623  0.628266  1
  O  O21  1  0.447436  0.588972  0.372531  1
  O  O22  1  0.052283  0.911225  0.871996  1
  O  O23  1  0.552615  0.089435  0.127553  1
  O  O24  1  0.250017  0.331984  0.485866  1
  O  O25  1  0.750014  0.667371  0.515064  1
  O  O26  1  0.750078  0.833060  0.014435  1
  O  O27  1  0.250010  0.167096  0.985081  1
  O  O28  1  0.750735  0.140516  0.954844  1
  O  O29  1  0.249231  0.859814  0.044986  1
  O  O30  1  0.249535  0.639483  0.545881  1
  O  O31  1  0.750454  0.359859  0.455013  1
  O  O32  1  0.750330  0.227481  0.749913  1
  O  O33  1  0.249626  0.772199  0.250269  1
  O  O34  1  0.249612  0.726557  0.750377  1
  O  O35  1  0.750376  0.273416  0.249491  1
  O  O36  1  0.444304  0.131900  0.378666  1
  O  O37  1  0.943455  0.869190  0.621725  1
  O  O38  1  0.555568  0.634214  0.121760  1
  O  O39  1  0.056721  0.366404  0.877273  1
  O  O40  1  0.555725  0.868625  0.621553  1
  O  O41  1  0.056520  0.131368  0.378496  1
  O  O42  1  0.444205  0.365643  0.877546  1
  O  O43  1  0.943397  0.633260  0.122069  1
  O  O44  1  0.749838  0.511336  0.983270  1
  O  O45  1  0.249901  0.022331  0.725912  1
  O  O46  1  0.250447  0.476971  0.226032  1
  O  O47  1  0.749606  0.523399  0.774361  1
  O  O48  1  0.749846  0.988637  0.482487  1
  O  O49  1  0.250161  0.010241  0.517257  1
  O  O50  1  0.250078  0.489293  0.015892  1
  O  O51  1  0.750141  0.977932  0.273785  1
