# generated using pymatgen
data_MgNi(GeO3)2
_symmetry_space_group_name_H-M   'P 1'
_cell_length_a   5.41247504
_cell_length_b   8.98574574
_cell_length_c   9.80003386
_cell_angle_alpha   90.00000000
_cell_angle_beta   103.31455902
_cell_angle_gamma   90.00000000
_symmetry_Int_Tables_number   1
_chemical_formula_structural   MgNi(GeO3)2
_chemical_formula_sum   'Mg4 Ni4 Ge8 O24'
_cell_volume   463.81434770
_cell_formula_units_Z   4
loop_
 _symmetry_equiv_pos_site_id
 _symmetry_equiv_pos_as_xyz
  1  'x, y, z'
loop_
 _atom_site_type_symbol
 _atom_site_label
 _atom_site_symmetry_multiplicity
 _atom_site_fract_x
 _atom_site_fract_y
 _atom_site_fract_z
 _atom_site_occupancy
  Mg  Mg0  1  0.440763  0.490205  0.245528  1
  Mg  Mg1  1  0.059237  0.990205  0.754472  1
  Mg  Mg2  1  0.559237  0.509795  0.754472  1
  Mg  Mg3  1  0.940763  0.009795  0.245528  1
  Ni  Ni4  1  0.950975  0.656918  0.244749  1
  Ni  Ni5  1  0.549025  0.156918  0.755251  1
  Ni  Ni6  1  0.049025  0.343082  0.755251  1
  Ni  Ni7  1  0.450975  0.843082  0.244749  1
  Ge  Ge8  1  0.827033  0.339923  0.055706  1
  Ge  Ge9  1  0.672967  0.839923  0.944294  1
  Ge  Ge10  1  0.172967  0.660077  0.944294  1
  Ge  Ge11  1  0.327033  0.160077  0.055706  1
  Ge  Ge12  1  0.231413  0.344712  0.460153  1
  Ge  Ge13  1  0.268587  0.844712  0.539847  1
  Ge  Ge14  1  0.768587  0.655288  0.539847  1
  Ge  Ge15  1  0.731413  0.155288  0.460153  1
  O  O16  1  0.496431  0.289597  0.386483  1
  O  O17  1  0.003569  0.789597  0.613517  1
  O  O18  1  0.503569  0.710403  0.613517  1
  O  O19  1  0.996431  0.210403  0.386483  1
  O  O20  1  0.171595  0.322548  0.111160  1
  O  O21  1  0.328405  0.822548  0.888841  1
  O  O22  1  0.828405  0.677452  0.888841  1
  O  O23  1  0.671595  0.177452  0.111160  1
  O  O24  1  0.687212  0.984701  0.376070  1
  O  O25  1  0.812788  0.484701  0.623930  1
  O  O26  1  0.312788  0.015299  0.623930  1
  O  O27  1  0.187212  0.515299  0.376070  1
  O  O28  1  0.223537  0.012171  0.139694  1
  O  O29  1  0.276463  0.512171  0.860306  1
  O  O30  1  0.776463  0.987829  0.860306  1
  O  O31  1  0.723537  0.487829  0.139694  1
  O  O32  1  0.762507  0.337938  0.869856  1
  O  O33  1  0.737493  0.837938  0.130144  1
  O  O34  1  0.237493  0.662062  0.130144  1
  O  O35  1  0.262507  0.162062  0.869856  1
  O  O36  1  0.327275  0.340568  0.643806  1
  O  O37  1  0.172725  0.840568  0.356194  1
  O  O38  1  0.672725  0.659432  0.356194  1
  O  O39  1  0.827275  0.159432  0.643806  1
