# generated using pymatgen
data_Ti3(P2O7)2
_symmetry_space_group_name_H-M   'P 1'
_cell_length_a   7.39046942
_cell_length_b   7.90549262
_cell_length_c   9.62787202
_cell_angle_alpha   90.00000000
_cell_angle_beta   110.61366033
_cell_angle_gamma   90.00000000
_symmetry_Int_Tables_number   1
_chemical_formula_structural   Ti3(P2O7)2
_chemical_formula_sum   'Ti6 P8 O28'
_cell_volume   526.49688883
_cell_formula_units_Z   2
loop_
 _symmetry_equiv_pos_site_id
 _symmetry_equiv_pos_as_xyz
  1  'x, y, z'
loop_
 _atom_site_type_symbol
 _atom_site_label
 _atom_site_symmetry_multiplicity
 _atom_site_fract_x
 _atom_site_fract_y
 _atom_site_fract_z
 _atom_site_occupancy
  Ti  Ti0  1  0.814151  0.366785  0.472141  1
  Ti  Ti1  1  0.814152  0.133215  0.972141  1
  Ti  Ti2  1  0.185849  0.866785  0.027859  1
  Ti  Ti3  1  -0.000000  0.500000  -0.000000  1
  Ti  Ti4  1  0.185848  0.633215  0.527858  1
  Ti  Ti5  1  -0.000000  -0.000000  0.500000  1
  P  P6  1  0.119396  0.291124  0.305352  1
  P  P7  1  0.400334  0.951041  0.794873  1
  P  P8  1  0.400335  0.548959  0.294873  1
  P  P9  1  0.599666  0.451041  0.705127  1
  P  P10  1  0.599666  0.048959  0.205127  1
  P  P11  1  0.880604  0.708876  0.694649  1
  P  P12  1  0.119397  0.208876  0.805352  1
  P  P13  1  0.880603  0.791124  0.194648  1
  O  O14  1  0.728664  0.388314  0.862948  1
  O  O15  1  0.003149  0.288521  0.136584  1
  O  O16  1  0.963642  0.921947  0.111815  1
  O  O17  1  0.862627  0.620813  0.119919  1
  O  O18  1  0.003148  0.211479  0.636584  1
  O  O19  1  0.963642  0.578052  0.611816  1
  O  O20  1  0.996851  0.711479  0.863416  1
  O  O21  1  0.036358  0.078052  0.888185  1
  O  O22  1  0.137372  0.379187  0.880080  1
  O  O23  1  0.996850  0.788521  0.363416  1
  O  O24  1  0.036359  0.421947  0.388184  1
  O  O25  1  0.324867  0.142215  0.812734  1
  O  O26  1  0.362656  0.841184  0.911653  1
  O  O27  1  0.137372  0.120813  0.380080  1
  O  O28  1  0.271336  0.888313  0.637052  1
  O  O29  1  0.388572  0.480941  0.682011  1
  O  O30  1  0.324867  0.357785  0.312735  1
  O  O31  1  0.637343  0.158816  0.088346  1
  O  O32  1  0.271336  0.611687  0.137052  1
  O  O33  1  0.611428  0.980941  0.817989  1
  O  O34  1  0.388573  0.019059  0.182011  1
  O  O35  1  0.675134  0.857785  0.187266  1
  O  O36  1  0.637344  0.341184  0.588347  1
  O  O37  1  0.675133  0.642215  0.687265  1
  O  O38  1  0.611428  0.519059  0.317989  1
  O  O39  1  0.728663  0.111687  0.362947  1
  O  O40  1  0.862628  0.879187  0.619920  1
  O  O41  1  0.362656  0.658816  0.411653  1
