# generated using pymatgen
data_CrNiP2O9
_symmetry_space_group_name_H-M   'P 1'
_cell_length_a   6.31295142
_cell_length_b   7.85935569
_cell_length_c   13.72097125
_cell_angle_alpha   90.00930873
_cell_angle_beta   90.01684092
_cell_angle_gamma   89.99684442
_symmetry_Int_Tables_number   1
_chemical_formula_structural   CrNiP2O9
_chemical_formula_sum   'Cr4 Ni4 P8 O36'
_cell_volume   680.77597402
_cell_formula_units_Z   4
loop_
 _symmetry_equiv_pos_site_id
 _symmetry_equiv_pos_as_xyz
  1  'x, y, z'
loop_
 _atom_site_type_symbol
 _atom_site_label
 _atom_site_symmetry_multiplicity
 _atom_site_fract_x
 _atom_site_fract_y
 _atom_site_fract_z
 _atom_site_occupancy
  Cr  Cr0  1  0.749998  0.351670  0.883401  1
  Cr  Cr1  1  0.250030  0.647911  0.117068  1
  Cr  Cr2  1  0.250122  0.852673  0.617060  1
  Cr  Cr3  1  0.749921  0.147620  0.383045  1
  Ni  Ni4  1  0.499972  0.000072  0.000153  1
  Ni  Ni5  1  0.499782  0.499998  0.500014  1
  Ni  Ni6  1  0.000173  0.499964  0.500001  1
  Ni  Ni7  1  0.000069  0.000029  0.000167  1
  P  P8  1  0.250054  0.344473  0.939788  1
  P  P9  1  0.749974  0.655792  0.060270  1
  P  P10  1  0.750015  0.844232  0.560011  1
  P  P11  1  0.250022  0.155480  0.439893  1
  P  P12  1  0.750141  0.389445  0.691026  1
  P  P13  1  0.249834  0.610040  0.308835  1
  P  P14  1  0.249965  0.889732  0.808897  1
  P  P15  1  0.749999  0.110994  0.190995  1
  O  O16  1  0.048921  0.600476  0.371259  1
  O  O17  1  0.548889  0.398697  0.628552  1
  O  O18  1  0.951323  0.101322  0.128797  1
  O  O19  1  0.450835  0.898607  0.871595  1
  O  O20  1  0.951354  0.398618  0.628622  1
  O  O21  1  0.450745  0.600460  0.371360  1
  O  O22  1  0.049142  0.898518  0.871548  1
  O  O23  1  0.548617  0.101297  0.128741  1
  O  O24  1  0.250021  0.339619  0.481311  1
  O  O25  1  0.749983  0.660287  0.518313  1
  O  O26  1  0.750009  0.839659  0.018422  1
  O  O27  1  0.249992  0.160484  0.981447  1
  O  O28  1  0.750208  0.163303  0.945568  1
  O  O29  1  0.249800  0.836263  0.054737  1
  O  O30  1  0.249954  0.664448  0.554738  1
  O  O31  1  0.750002  0.335790  0.445231  1
  O  O32  1  0.749956  0.226230  0.756945  1
  O  O33  1  0.250017  0.773848  0.243436  1
  O  O34  1  0.250116  0.726437  0.743053  1
  O  O35  1  0.749889  0.274357  0.256815  1
  O  O36  1  0.446290  0.133289  0.374766  1
  O  O37  1  0.946346  0.866529  0.624993  1
  O  O38  1  0.553671  0.634443  0.125327  1
  O  O39  1  0.053478  0.365893  0.874659  1
  O  O40  1  0.553862  0.866459  0.625048  1
  O  O41  1  0.053568  0.133272  0.374790  1
  O  O42  1  0.446551  0.365675  0.874665  1
  O  O43  1  0.946381  0.634221  0.125331  1
  O  O44  1  0.749974  0.974669  0.275173  1
  O  O45  1  0.249981  0.025687  0.724841  1
  O  O46  1  0.250012  0.474869  0.224446  1
  O  O47  1  0.750040  0.525953  0.774820  1
  O  O48  1  0.749850  0.976775  0.477536  1
  O  O49  1  0.250098  0.023382  0.522467  1
  O  O50  1  0.250182  0.477406  0.021927  1
  O  O51  1  0.749869  0.522636  0.978087  1
