# generated using pymatgen
data_MgMn3P3O13
_symmetry_space_group_name_H-M   'P 1'
_cell_length_a   6.18089751
_cell_length_b   7.70676609
_cell_length_c   10.30119463
_cell_angle_alpha   100.27652010
_cell_angle_beta   90.00000000
_cell_angle_gamma   90.00000000
_symmetry_Int_Tables_number   1
_chemical_formula_structural   MgMn3P3O13
_chemical_formula_sum   'Mg2 Mn6 P6 O26'
_cell_volume   482.82302748
_cell_formula_units_Z   2
loop_
 _symmetry_equiv_pos_site_id
 _symmetry_equiv_pos_as_xyz
  1  'x, y, z'
loop_
 _atom_site_type_symbol
 _atom_site_label
 _atom_site_symmetry_multiplicity
 _atom_site_fract_x
 _atom_site_fract_y
 _atom_site_fract_z
 _atom_site_occupancy
  Mg  Mg0  1  0.750000  0.632734  0.167477  1
  Mg  Mg1  1  0.250000  0.367266  0.832523  1
  Mn  Mn2  1  0.250000  0.350938  0.208210  1
  Mn  Mn3  1  0.750000  0.649062  0.791790  1
  Mn  Mn4  1  0.250000  0.771277  0.429805  1
  Mn  Mn5  1  0.500000  -0.000000  0.000000  1
  Mn  Mn6  1  0.750000  0.228723  0.570195  1
  Mn  Mn7  1  0.000000  -0.000000  0.000000  1
  P  P8  1  0.250000  0.212763  0.493076  1
  P  P9  1  0.750000  0.787237  0.506924  1
  P  P10  1  0.250000  0.734327  0.759765  1
  P  P11  1  0.750000  0.265673  0.240235  1
  P  P12  1  0.750000  0.322383  0.888591  1
  P  P13  1  0.250000  0.677617  0.111409  1
  O  O14  1  0.750000  0.376798  0.748632  1
  O  O15  1  0.557853  0.749364  0.405960  1
  O  O16  1  0.250000  0.779688  0.623404  1
  O  O17  1  0.536504  0.217909  0.897315  1
  O  O18  1  0.750000  0.650653  0.598740  1
  O  O19  1  0.750000  0.882982  0.907297  1
  O  O20  1  0.250000  0.349347  0.401260  1
  O  O21  1  0.036504  0.782091  0.102685  1
  O  O22  1  0.250000  0.026219  0.413732  1
  O  O23  1  0.750000  0.973781  0.586268  1
  O  O24  1  0.059479  0.614098  0.789666  1
  O  O25  1  0.250000  0.117018  0.092703  1
  O  O26  1  0.559479  0.385902  0.210334  1
  O  O27  1  0.750000  0.502848  0.979699  1
  O  O28  1  0.750000  0.220312  0.376596  1
  O  O29  1  0.463496  0.782091  0.102685  1
  O  O30  1  0.942147  0.749364  0.405960  1
  O  O31  1  0.442147  0.250636  0.594040  1
  O  O32  1  0.440521  0.614098  0.789666  1
  O  O33  1  0.250000  0.623202  0.251368  1
  O  O34  1  0.750000  0.094719  0.133781  1
  O  O35  1  0.250000  0.905281  0.866219  1
  O  O36  1  0.940521  0.385902  0.210334  1
  O  O37  1  0.963496  0.217909  0.897315  1
  O  O38  1  0.057853  0.250636  0.594040  1
  O  O39  1  0.250000  0.497152  0.020301  1
