# generated using pymatgen
data_MgTi3P3O13
_symmetry_space_group_name_H-M   'P 1'
_cell_length_a   6.41640774
_cell_length_b   7.73099341
_cell_length_c   10.24189834
_cell_angle_alpha   99.73559691
_cell_angle_beta   90.00000000
_cell_angle_gamma   90.00000000
_symmetry_Int_Tables_number   1
_chemical_formula_structural   MgTi3P3O13
_chemical_formula_sum   'Mg2 Ti6 P6 O26'
_cell_volume   500.73482356
_cell_formula_units_Z   2
loop_
 _symmetry_equiv_pos_site_id
 _symmetry_equiv_pos_as_xyz
  1  'x, y, z'
loop_
 _atom_site_type_symbol
 _atom_site_label
 _atom_site_symmetry_multiplicity
 _atom_site_fract_x
 _atom_site_fract_y
 _atom_site_fract_z
 _atom_site_occupancy
  Mg  Mg0  1  0.750000  0.614858  0.170097  1
  Mg  Mg1  1  0.250000  0.385142  0.829903  1
  Ti  Ti2  1  0.250000  0.352199  0.203139  1
  Ti  Ti3  1  0.750000  0.647801  0.796861  1
  Ti  Ti4  1  0.250000  0.791581  0.431569  1
  Ti  Ti5  1  0.500000  0.000000  0.000000  1
  Ti  Ti6  1  0.750000  0.208419  0.568431  1
  Ti  Ti7  1  0.000000  0.000000  0.000000  1
  P  P8  1  0.250000  0.222920  0.498984  1
  P  P9  1  0.750000  0.777080  0.501016  1
  P  P10  1  0.250000  0.726669  0.759979  1
  P  P11  1  0.750000  0.273331  0.240021  1
  P  P12  1  0.750000  0.320962  0.887562  1
  P  P13  1  0.250000  0.679038  0.112438  1
  O  O14  1  0.750000  0.368951  0.744902  1
  O  O15  1  0.560118  0.746278  0.407243  1
  O  O16  1  0.250000  0.772233  0.620790  1
  O  O17  1  0.545329  0.219032  0.901578  1
  O  O18  1  0.750000  0.656272  0.604801  1
  O  O19  1  0.750000  0.868306  0.901169  1
  O  O20  1  0.250000  0.343728  0.395199  1
  O  O21  1  0.045329  0.780968  0.098422  1
  O  O22  1  0.250000  0.028918  0.422034  1
  O  O23  1  0.750000  0.971082  0.577966  1
  O  O24  1  0.065166  0.606267  0.786014  1
  O  O25  1  0.250000  0.131694  0.098831  1
  O  O26  1  0.565166  0.393733  0.213986  1
  O  O27  1  0.750000  0.507568  0.972925  1
  O  O28  1  0.750000  0.227767  0.379210  1
  O  O29  1  0.454671  0.780968  0.098422  1
  O  O30  1  0.939882  0.746278  0.407243  1
  O  O31  1  0.439882  0.253722  0.592757  1
  O  O32  1  0.434834  0.606267  0.786014  1
  O  O33  1  0.250000  0.631049  0.255098  1
  O  O34  1  0.750000  0.101246  0.135707  1
  O  O35  1  0.250000  0.898754  0.864293  1
  O  O36  1  0.934834  0.393733  0.213986  1
  O  O37  1  0.954671  0.219032  0.901578  1
  O  O38  1  0.060118  0.253722  0.592757  1
  O  O39  1  0.250000  0.492432  0.027075  1
