# generated using pymatgen
data_Mo3P3O13
_symmetry_space_group_name_H-M   'P 1'
_cell_length_a   6.59412735
_cell_length_b   7.67918876
_cell_length_c   10.99055990
_cell_angle_alpha   98.96204184
_cell_angle_beta   90.00000000
_cell_angle_gamma   90.00000000
_symmetry_Int_Tables_number   1
_chemical_formula_structural   Mo3P3O13
_chemical_formula_sum   'Mo6 P6 O26'
_cell_volume   549.74069895
_cell_formula_units_Z   2
loop_
 _symmetry_equiv_pos_site_id
 _symmetry_equiv_pos_as_xyz
  1  'x, y, z'
loop_
 _atom_site_type_symbol
 _atom_site_label
 _atom_site_symmetry_multiplicity
 _atom_site_fract_x
 _atom_site_fract_y
 _atom_site_fract_z
 _atom_site_occupancy
  Mo  Mo0  1  0.250000  0.369787  0.203216  1
  Mo  Mo1  1  0.750000  0.630213  0.796784  1
  Mo  Mo2  1  0.250000  0.770270  0.449826  1
  Mo  Mo3  1  0.500000  -0.000000  0.000000  1
  Mo  Mo4  1  0.750000  0.229730  0.550174  1
  Mo  Mo5  1  0.000000  -0.000000  0.000000  1
  P  P6  1  0.250000  0.211459  0.479436  1
  P  P7  1  0.750000  0.788541  0.520564  1
  P  P8  1  0.250000  0.743813  0.768881  1
  P  P9  1  0.750000  0.256187  0.231119  1
  P  P10  1  0.750000  0.308089  0.881496  1
  P  P11  1  0.250000  0.691911  0.118504  1
  O  O12  1  0.750000  0.341005  0.744017  1
  O  O13  1  0.563191  0.744380  0.440231  1
  O  O14  1  0.250000  0.806238  0.645428  1
  O  O15  1  0.558261  0.206139  0.909522  1
  O  O16  1  0.750000  0.659833  0.620885  1
  O  O17  1  0.750000  0.876206  0.913402  1
  O  O18  1  0.250000  0.340167  0.379115  1
  O  O19  1  0.058261  0.793861  0.090478  1
  O  O20  1  0.250000  0.022473  0.406029  1
  O  O21  1  0.750000  0.977527  0.593971  1
  O  O22  1  0.059423  0.637785  0.792078  1
  O  O23  1  0.250000  0.123794  0.086598  1
  O  O24  1  0.559423  0.362215  0.207922  1
  O  O25  1  0.750000  0.502471  0.949004  1
  O  O26  1  0.750000  0.193762  0.354572  1
  O  O27  1  0.441739  0.793861  0.090478  1
  O  O28  1  0.936809  0.744380  0.440231  1
  O  O29  1  0.436809  0.255620  0.559769  1
  O  O30  1  0.440577  0.637785  0.792078  1
  O  O31  1  0.250000  0.658995  0.255983  1
  O  O32  1  0.750000  0.087100  0.123430  1
  O  O33  1  0.250000  0.912900  0.876570  1
  O  O34  1  0.940577  0.362215  0.207922  1
  O  O35  1  0.941739  0.206139  0.909522  1
  O  O36  1  0.063191  0.255620  0.559769  1
  O  O37  1  0.250000  0.497529  0.050996  1
