# generated using pymatgen
data_MgCr2(PO4)2
_symmetry_space_group_name_H-M   'P 1'
_cell_length_a   5.05666965
_cell_length_b   9.23513019
_cell_length_c   14.47907378
_cell_angle_alpha   85.04664969
_cell_angle_beta   80.20177387
_cell_angle_gamma   73.88707830
_symmetry_Int_Tables_number   1
_chemical_formula_structural   MgCr2(PO4)2
_chemical_formula_sum   'Mg4 Cr8 P8 O32'
_cell_volume   639.57434470
_cell_formula_units_Z   4
loop_
 _symmetry_equiv_pos_site_id
 _symmetry_equiv_pos_as_xyz
  1  'x, y, z'
loop_
 _atom_site_type_symbol
 _atom_site_label
 _atom_site_symmetry_multiplicity
 _atom_site_fract_x
 _atom_site_fract_y
 _atom_site_fract_z
 _atom_site_occupancy
  Mg  Mg0  1  0.425953  0.845042  0.875063  1
  Mg  Mg1  1  0.146294  0.653665  0.625029  1
  Mg  Mg2  1  0.853305  0.345258  0.374644  1
  Mg  Mg3  1  0.574156  0.153341  0.124880  1
  Cr  Cr4  1  0.163510  0.231661  0.969383  1
  Cr  Cr5  1  0.366206  0.267051  0.529772  1
  Cr  Cr6  1  0.835421  0.767309  0.030258  1
  Cr  Cr7  1  0.499403  0.499055  0.999815  1
  Cr  Cr8  1  0.632792  0.731918  0.469982  1
  Cr  Cr9  1  0.683928  0.748339  0.250646  1
  Cr  Cr10  1  0.314619  0.250971  0.748999  1
  Cr  Cr11  1  0.999651  0.999658  0.499840  1
  P  P12  1  0.063951  0.568058  0.857661  1
  P  P13  1  0.774795  0.426488  0.607040  1
  P  P14  1  0.934003  0.431053  0.142005  1
  P  P15  1  0.193852  0.926762  0.106885  1
  P  P16  1  0.506829  0.067760  0.357715  1
  P  P17  1  0.492220  0.931355  0.642065  1
  P  P18  1  0.224740  0.572487  0.392792  1
  P  P19  1  0.804978  0.072550  0.893074  1
  O  O20  1  0.703026  0.378954  0.105589  1
  O  O21  1  0.777750  0.907603  0.915741  1
  O  O22  1  0.811586  0.879657  0.605575  1
  O  O23  1  0.825972  0.324258  0.521534  1
  O  O24  1  0.198939  0.388482  0.062617  1
  O  O25  1  0.614454  0.372227  0.693611  1
  O  O26  1  0.668410  0.175860  0.978035  1
  O  O27  1  0.873378  0.930962  0.120137  1
  O  O28  1  0.173616  0.674684  0.478307  1
  O  O29  1  0.603975  0.591782  0.584476  1
  O  O30  1  0.856939  0.608321  0.141689  1
  O  O31  1  0.583505  0.140850  0.263672  1
  O  O32  1  0.220868  0.091751  0.084136  1
  O  O33  1  0.078917  0.429514  0.621093  1
  O  O34  1  0.294815  0.619651  0.894499  1
  O  O35  1  0.139965  0.390833  0.857929  1
  O  O36  1  0.008958  0.641449  0.763327  1
  O  O37  1  0.331012  0.823362  0.022043  1
  O  O38  1  0.389203  0.108589  0.641349  1
  O  O39  1  0.416580  0.858165  0.736187  1
  O  O40  1  0.920700  0.569456  0.378749  1
  O  O41  1  0.348462  0.888357  0.562610  1
  O  O42  1  0.125580  0.067908  0.879711  1
  O  O43  1  0.325005  0.873107  0.193670  1
  O  O44  1  0.395666  0.407189  0.415299  1
  O  O45  1  0.187367  0.119933  0.394051  1
  O  O46  1  0.990527  0.357928  0.236281  1
  O  O47  1  0.650516  0.110463  0.437271  1
  O  O48  1  0.798041  0.611141  0.936675  1
  O  O49  1  0.672901  0.126740  0.806531  1
  O  O50  1  0.385314  0.626820  0.306295  1
  O  O51  1  0.608717  0.890524  0.358445  1
