# generated using pymatgen
data_MgNi3(P2O7)2
_symmetry_space_group_name_H-M   'P 1'
_cell_length_a   7.26529638
_cell_length_b   7.49761614
_cell_length_c   9.48614775
_cell_angle_alpha   90.00000000
_cell_angle_beta   112.36024771
_cell_angle_gamma   90.00000000
_symmetry_Int_Tables_number   1
_chemical_formula_structural   MgNi3(P2O7)2
_chemical_formula_sum   'Mg2 Ni6 P8 O28'
_cell_volume   477.88019671
_cell_formula_units_Z   2
loop_
 _symmetry_equiv_pos_site_id
 _symmetry_equiv_pos_as_xyz
  1  'x, y, z'
loop_
 _atom_site_type_symbol
 _atom_site_label
 _atom_site_symmetry_multiplicity
 _atom_site_fract_x
 _atom_site_fract_y
 _atom_site_fract_z
 _atom_site_occupancy
  Mg  Mg0  1  0.500000  0.000000  -0.000000  1
  Mg  Mg1  1  0.500000  0.500000  0.500000  1
  Ni  Ni2  1  0.185529  0.871604  0.522964  1
  Ni  Ni3  1  0.814471  0.371604  0.977036  1
  Ni  Ni4  1  0.814471  0.128396  0.477036  1
  Ni  Ni5  1  0.185529  0.628396  0.022964  1
  Ni  Ni6  1  0.000000  0.000000  -0.000000  1
  Ni  Ni7  1  0.000000  0.500000  0.500000  1
  P  P8  1  0.588563  0.077031  0.704201  1
  P  P9  1  0.411437  0.577031  0.795799  1
  P  P10  1  0.411437  0.922969  0.295799  1
  P  P11  1  0.588563  0.422969  0.204201  1
  P  P12  1  0.869045  0.793324  0.687159  1
  P  P13  1  0.130955  0.293324  0.812841  1
  P  P14  1  0.130955  0.206676  0.312841  1
  P  P15  1  0.869045  0.706676  0.187159  1
  O  O16  1  0.806374  0.617251  0.599428  1
  O  O17  1  0.193626  0.117251  0.900572  1
  O  O18  1  0.193626  0.382749  0.400572  1
  O  O19  1  0.806374  0.882749  0.099428  1
  O  O20  1  0.280061  0.621313  0.625867  1
  O  O21  1  0.719939  0.121313  0.874133  1
  O  O22  1  0.719939  0.378687  0.374133  1
  O  O23  1  0.280061  0.878687  0.125867  1
  O  O24  1  0.614603  0.212973  0.593223  1
  O  O25  1  0.385397  0.712973  0.906777  1
  O  O26  1  0.385397  0.787027  0.406777  1
  O  O27  1  0.614603  0.287027  0.093223  1
  O  O28  1  0.664963  0.887040  0.670481  1
  O  O29  1  0.335037  0.387040  0.829519  1
  O  O30  1  0.335037  0.112960  0.329519  1
  O  O31  1  0.664963  0.612960  0.170481  1
  O  O32  1  0.380323  0.469293  0.193226  1
  O  O33  1  0.619677  0.969293  0.306774  1
  O  O34  1  0.619677  0.530707  0.806774  1
  O  O35  1  0.380323  0.030707  0.693226  1
  O  O36  1  0.016167  0.215167  0.140011  1
  O  O37  1  0.983833  0.715167  0.359989  1
  O  O38  1  0.983833  0.784833  0.859989  1
  O  O39  1  0.016167  0.284833  0.640011  1
  O  O40  1  0.968235  0.582375  0.109118  1
  O  O41  1  0.031765  0.082375  0.390882  1
  O  O42  1  0.031765  0.417625  0.890882  1
  O  O43  1  0.968235  0.917625  0.609118  1
