# generated using pymatgen
data_MgBi2O5
_symmetry_space_group_name_H-M   'P 1'
_cell_length_a   5.51390547
_cell_length_b   8.35081855
_cell_length_c   11.87970356
_cell_angle_alpha   90.00000000
_cell_angle_beta   90.00000000
_cell_angle_gamma   105.51257228
_symmetry_Int_Tables_number   1
_chemical_formula_structural   MgBi2O5
_chemical_formula_sum   'Mg4 Bi8 O20'
_cell_volume   527.08182971
_cell_formula_units_Z   4
loop_
 _symmetry_equiv_pos_site_id
 _symmetry_equiv_pos_as_xyz
  1  'x, y, z'
loop_
 _atom_site_type_symbol
 _atom_site_label
 _atom_site_symmetry_multiplicity
 _atom_site_fract_x
 _atom_site_fract_y
 _atom_site_fract_z
 _atom_site_occupancy
  Mg  Mg0  1  0.610862  0.162567  0.918007  1
  Mg  Mg1  1  0.389138  0.837433  0.081993  1
  Mg  Mg2  1  0.889138  0.337433  0.418007  1
  Mg  Mg3  1  0.110862  0.662567  0.581993  1
  Bi  Bi4  1  0.790146  0.956961  0.624766  1
  Bi  Bi5  1  0.209854  0.043039  0.375234  1
  Bi  Bi6  1  0.709854  0.543039  0.124766  1
  Bi  Bi7  1  0.290146  0.456961  0.875234  1
  Bi  Bi8  1  0.094378  0.149540  0.102779  1
  Bi  Bi9  1  0.905622  0.850460  0.897221  1
  Bi  Bi10  1  0.594378  0.649540  0.397221  1
  Bi  Bi11  1  0.405622  0.350460  0.602779  1
  O  O12  1  0.493934  0.332762  0.044114  1
  O  O13  1  0.977807  0.318002  0.957752  1
  O  O14  1  0.501292  0.685819  0.192981  1
  O  O15  1  0.760873  0.512030  0.523245  1
  O  O16  1  0.779220  0.476284  0.288864  1
  O  O17  1  0.279220  0.976284  0.211136  1
  O  O18  1  0.477807  0.818002  0.542248  1
  O  O19  1  0.522193  0.181998  0.457752  1
  O  O20  1  0.239127  0.487970  0.476755  1
  O  O21  1  0.006066  0.167238  0.544114  1
  O  O22  1  0.220780  0.523716  0.711136  1
  O  O23  1  0.506066  0.667238  0.955886  1
  O  O24  1  0.993934  0.832762  0.455886  1
  O  O25  1  0.720780  0.023716  0.788864  1
  O  O26  1  0.739127  0.987970  0.023245  1
  O  O27  1  0.260873  0.012030  0.976755  1
  O  O28  1  0.498708  0.314181  0.807019  1
  O  O29  1  0.022193  0.681998  0.042248  1
  O  O30  1  0.998708  0.814181  0.692981  1
  O  O31  1  0.001292  0.185819  0.307019  1
