# generated using pymatgen
data_MgV(PO3)4
_symmetry_space_group_name_H-M   'P 1'
_cell_length_a   7.33013749
_cell_length_b   7.33994813
_cell_length_c   9.95822340
_cell_angle_alpha   98.95875900
_cell_angle_beta   109.22654375
_cell_angle_gamma   109.91108378
_symmetry_Int_Tables_number   1
_chemical_formula_structural   MgV(PO3)4
_chemical_formula_sum   'Mg2 V2 P8 O24'
_cell_volume   453.48649332
_cell_formula_units_Z   2
loop_
 _symmetry_equiv_pos_site_id
 _symmetry_equiv_pos_as_xyz
  1  'x, y, z'
loop_
 _atom_site_type_symbol
 _atom_site_label
 _atom_site_symmetry_multiplicity
 _atom_site_fract_x
 _atom_site_fract_y
 _atom_site_fract_z
 _atom_site_occupancy
  Mg  Mg0  1  0.706147  0.956099  0.749904  1
  Mg  Mg1  1  0.291602  0.041002  0.249273  1
  V  V2  1  0.499331  0.498076  0.500030  1
  V  V3  1  0.499169  0.998016  0.000421  1
  P  P4  1  0.509029  0.312151  0.806467  1
  P  P5  1  0.006960  0.703684  0.692726  1
  P  P6  1  0.488697  0.683251  0.193402  1
  P  P7  1  0.992163  0.295057  0.306827  1
  P  P8  1  0.768141  0.728089  0.020590  1
  P  P9  1  0.207981  0.746737  0.477643  1
  P  P10  1  0.229329  0.267664  0.979029  1
  P  P11  1  0.791567  0.252014  0.521974  1
  O  O12  1  0.319577  0.311442  0.854040  1
  O  O13  1  0.959125  0.467181  0.646824  1
  O  O14  1  0.677832  0.684170  0.145497  1
  O  O15  1  0.040335  0.531880  0.352262  1
  O  O16  1  0.718569  0.501969  0.932810  1
  O  O17  1  0.068108  0.784254  0.564674  1
  O  O18  1  0.278862  0.493806  0.066818  1
  O  O19  1  0.932212  0.215135  0.435445  1
  O  O20  1  0.458528  0.343035  0.657749  1
  O  O21  1  0.187656  0.802954  0.840720  1
  O  O22  1  0.539799  0.651565  0.341836  1
  O  O23  1  0.810639  0.195235  0.159229  1
  O  O24  1  0.546978  0.124719  0.825004  1
  O  O25  1  0.800880  0.722877  0.675126  1
  O  O26  1  0.450936  0.870986  0.175599  1
  O  O27  1  0.197825  0.275267  0.323916  1
  O  O28  1  0.637037  0.811485  0.916083  1
  O  O29  1  0.395923  0.720652  0.582674  1
  O  O30  1  0.360466  0.184381  0.083651  1
  O  O31  1  0.603397  0.277198  0.416423  1
  O  O32  1  0.001803  0.842840  0.096223  1
  O  O33  1  0.247473  0.904771  0.402206  1
  O  O34  1  0.995714  0.152781  0.903589  1
  O  O35  1  0.752440  0.094789  0.598148  1
