# generated using pymatgen
data_LiCuPO4
_symmetry_space_group_name_H-M   'P 1'
_cell_length_a   5.01813378
_cell_length_b   9.71432850
_cell_length_c   6.90568474
_cell_angle_alpha   90.00000000
_cell_angle_beta   89.96522505
_cell_angle_gamma   90.00000000
_symmetry_Int_Tables_number   1
_chemical_formula_structural   LiCuPO4
_chemical_formula_sum   'Li4 Cu4 P4 O16'
_cell_volume   336.63687644
_cell_formula_units_Z   4
loop_
 _symmetry_equiv_pos_site_id
 _symmetry_equiv_pos_as_xyz
  1  'x, y, z'
loop_
 _atom_site_type_symbol
 _atom_site_label
 _atom_site_symmetry_multiplicity
 _atom_site_fract_x
 _atom_site_fract_y
 _atom_site_fract_z
 _atom_site_occupancy
  Li  Li0  1  0.702447  0.330210  0.484402  1
  Li  Li1  1  0.297553  0.669790  0.515598  1
  Li  Li2  1  0.202447  0.169790  0.984402  1
  Li  Li3  1  0.797553  0.830210  0.015598  1
  Cu  Cu4  1  0.232146  0.130251  0.488936  1
  Cu  Cu5  1  0.732146  0.369749  0.988936  1
  Cu  Cu6  1  0.767854  0.869749  0.511064  1
  Cu  Cu7  1  0.267854  0.630251  0.011064  1
  P  P8  1  0.301347  0.905472  0.246755  1
  P  P9  1  0.698653  0.094528  0.753245  1
  P  P10  1  0.198653  0.405472  0.253245  1
  P  P11  1  0.801347  0.594528  0.746755  1
  O  O12  1  0.321908  0.326431  0.425899  1
  O  O13  1  0.108185  0.622218  0.752370  1
  O  O14  1  0.891815  0.377782  0.247630  1
  O  O15  1  0.740884  0.438189  0.720833  1
  O  O16  1  0.821908  0.173569  0.925899  1
  O  O17  1  0.759116  0.938189  0.779167  1
  O  O18  1  0.259116  0.561811  0.279167  1
  O  O19  1  0.683054  0.636539  0.947212  1
  O  O20  1  0.183054  0.863461  0.447212  1
  O  O21  1  0.316946  0.363461  0.052788  1
  O  O22  1  0.391815  0.122218  0.747630  1
  O  O23  1  0.178092  0.826431  0.074101  1
  O  O24  1  0.240884  0.061811  0.220833  1
  O  O25  1  0.816946  0.136539  0.552788  1
  O  O26  1  0.608185  0.877782  0.252370  1
  O  O27  1  0.678092  0.673569  0.574101  1
