# generated using pymatgen
data_Li3Cr3(PO4)4
_symmetry_space_group_name_H-M   'P 1'
_cell_length_a   6.39253657
_cell_length_b   10.14331523
_cell_length_c   10.49596847
_cell_angle_alpha   89.93139240
_cell_angle_beta   90.00000000
_cell_angle_gamma   71.63249657
_symmetry_Int_Tables_number   1
_chemical_formula_structural   Li3Cr3(PO4)4
_chemical_formula_sum   'Li6 Cr6 P8 O32'
_cell_volume   645.90202346
_cell_formula_units_Z   2
loop_
 _symmetry_equiv_pos_site_id
 _symmetry_equiv_pos_as_xyz
  1  'x, y, z'
loop_
 _atom_site_type_symbol
 _atom_site_label
 _atom_site_symmetry_multiplicity
 _atom_site_fract_x
 _atom_site_fract_y
 _atom_site_fract_z
 _atom_site_occupancy
  Li  Li0  1  0.175593  0.868858  0.952246  1
  Li  Li1  1  0.469956  1.000000  0.250000  1
  Li  Li2  1  0.530043  1.000000  0.750000  1
  Li  Li3  1  0.824407  0.131142  0.047754  1
  Li  Li4  1  0.044452  0.131142  0.547754  1
  Li  Li5  1  0.955548  0.868858  0.452245  1
  O  O6  1  0.947253  0.701119  0.995388  1
  O  O7  1  0.425785  0.171277  0.107952  1
  O  O8  1  0.370712  0.154849  0.868910  1
  O  O9  1  0.474440  0.154849  0.368911  1
  O  O10  1  0.786010  0.042949  0.527866  1
  O  O11  1  0.171042  0.042949  0.027867  1
  O  O12  1  0.828957  0.957051  0.972134  1
  O  O13  1  0.213992  0.957051  0.472133  1
  O  O14  1  0.525560  0.845151  0.631089  1
  O  O15  1  0.629289  0.845151  0.131090  1
  O  O16  1  0.574215  0.828723  0.892048  1
  O  O17  1  0.597063  0.828722  0.392047  1
  O  O18  1  0.723603  0.508272  0.364457  1
  O  O19  1  0.351627  0.701119  0.495389  1
  O  O20  1  0.318323  0.693453  0.782807  1
  O  O21  1  0.943613  0.688542  0.718712  1
  O  O22  1  0.052747  0.298881  0.004612  1
  O  O23  1  0.367845  0.688542  0.218711  1
  O  O24  1  0.768125  0.508272  0.864456  1
  O  O25  1  0.691264  0.514149  0.644635  1
  O  O26  1  0.402937  0.171277  0.607952  1
  O  O27  1  0.794586  0.514149  0.144635  1
  O  O28  1  0.205414  0.485851  0.855365  1
  O  O29  1  0.276397  0.491728  0.635543  1
  O  O30  1  0.308735  0.485852  0.355365  1
  O  O31  1  0.231876  0.491728  0.135544  1
  O  O32  1  0.632156  0.311458  0.781289  1
  O  O33  1  0.011775  0.306547  0.717192  1
  O  O34  1  0.056387  0.311458  0.281288  1
  O  O35  1  0.681677  0.306547  0.217193  1
  O  O36  1  0.648373  0.298881  0.504612  1
  O  O37  1  0.988224  0.693453  0.282808  1
  P  P38  1  0.419479  0.835317  0.498304  1
  P  P39  1  0.179591  0.600772  0.746962  1
  P  P40  1  0.219636  0.600773  0.246962  1
  P  P41  1  0.780364  0.399228  0.753038  1
  P  P42  1  0.820409  0.399228  0.253039  1
  P  P43  1  0.580520  0.164683  0.501695  1
  P  P44  1  0.745204  0.835317  0.998305  1
  P  P45  1  0.254796  0.164683  0.001696  1
  Cr  Cr46  1  0.365262  0.312730  0.245312  1
  Cr  Cr47  1  0.322008  0.312730  0.745312  1
  Cr  Cr48  1  1.000000  0.500000  0.000000  1
  Cr  Cr49  1  0.500000  0.499999  0.500000  1
  Cr  Cr50  1  0.677992  0.687270  0.254687  1
  Cr  Cr51  1  0.634738  0.687270  0.754688  1
