# generated using pymatgen
data_LiMoPO5
_symmetry_space_group_name_H-M   'P 1'
_cell_length_a   13.12885849
_cell_length_b   6.53695936
_cell_length_c   10.80641434
_cell_angle_alpha   90.00000000
_cell_angle_beta   90.00000000
_cell_angle_gamma   90.00000000
_symmetry_Int_Tables_number   1
_chemical_formula_structural   LiMoPO5
_chemical_formula_sum   'Li8 Mo8 P8 O40'
_cell_volume   927.43689215
_cell_formula_units_Z   8
loop_
 _symmetry_equiv_pos_site_id
 _symmetry_equiv_pos_as_xyz
  1  'x, y, z'
loop_
 _atom_site_type_symbol
 _atom_site_label
 _atom_site_symmetry_multiplicity
 _atom_site_fract_x
 _atom_site_fract_y
 _atom_site_fract_z
 _atom_site_occupancy
  Li  Li0  1  0.408973  0.431099  0.553671  1
  Li  Li1  1  0.908973  0.068901  0.553671  1
  Li  Li2  1  0.268041  0.766086  0.267698  1
  Li  Li3  1  0.231959  0.266086  0.767698  1
  Li  Li4  1  0.768041  0.733914  0.267698  1
  Li  Li5  1  0.591027  0.568901  0.053671  1
  Li  Li6  1  0.091027  0.931099  0.053671  1
  Li  Li7  1  0.731959  0.233914  0.767698  1
  Mo  Mo8  1  0.271513  0.772807  0.748455  1
  Mo  Mo9  1  0.228487  0.272807  0.248455  1
  Mo  Mo10  1  0.132288  0.023167  0.513386  1
  Mo  Mo11  1  0.728487  0.227194  0.248455  1
  Mo  Mo12  1  0.367712  0.523167  0.013386  1
  Mo  Mo13  1  0.771513  0.727193  0.748455  1
  Mo  Mo14  1  0.867712  0.976833  0.013386  1
  Mo  Mo15  1  0.632288  0.476833  0.513386  1
  P  P16  1  0.481569  0.341166  0.272679  1
  P  P17  1  0.189329  0.527922  0.506374  1
  P  P18  1  0.310671  0.027922  0.006374  1
  P  P19  1  0.518430  0.658834  0.772679  1
  P  P20  1  0.018430  0.841166  0.772679  1
  P  P21  1  0.981570  0.158834  0.272679  1
  P  P22  1  0.689329  0.972078  0.506374  1
  P  P23  1  0.810671  0.472078  0.006374  1
  O  O24  1  0.787059  0.977661  0.860530  1
  O  O25  1  0.212941  0.022339  0.360530  1
  O  O26  1  0.778461  0.949459  0.603513  1
  O  O27  1  0.382737  0.210278  0.004044  1
  O  O28  1  0.259793  0.512133  0.139728  1
  O  O29  1  0.426739  0.802971  0.748234  1
  O  O30  1  0.754867  0.489346  0.879776  1
  O  O31  1  0.926739  0.697029  0.748234  1
  O  O32  1  0.278461  0.550541  0.603513  1
  O  O33  1  0.617263  0.789722  0.504044  1
  O  O34  1  0.382732  0.214036  0.271172  1
  O  O35  1  0.372306  0.837232  0.039449  1
  O  O36  1  0.573261  0.197029  0.248234  1
  O  O37  1  0.759793  0.987867  0.139728  1
  O  O38  1  0.245133  0.510654  0.379776  1
  O  O39  1  0.117263  0.710278  0.504044  1
  O  O40  1  0.493897  0.441085  0.403605  1
  O  O41  1  0.073261  0.302971  0.248234  1
  O  O42  1  0.127694  0.337232  0.539449  1
  O  O43  1  0.478353  0.509519  0.169449  1
  O  O44  1  0.240207  0.012133  0.639728  1
  O  O45  1  0.521647  0.490481  0.669449  1
  O  O46  1  0.117268  0.714036  0.771172  1
  O  O47  1  0.872306  0.662768  0.039449  1
  O  O48  1  0.006103  0.941085  0.903605  1
  O  O49  1  0.617268  0.785964  0.771172  1
  O  O50  1  0.721539  0.449459  0.103513  1
  O  O51  1  0.627694  0.162768  0.539449  1
  O  O52  1  0.506103  0.558915  0.903605  1
  O  O53  1  0.978353  0.990481  0.169449  1
  O  O54  1  0.882732  0.285964  0.271172  1
  O  O55  1  0.712941  0.477661  0.360530  1
  O  O56  1  0.221539  0.050541  0.103513  1
  O  O57  1  0.740207  0.487867  0.639728  1
  O  O58  1  0.287059  0.522339  0.860530  1
  O  O59  1  0.993897  0.058915  0.403605  1
  O  O60  1  0.254867  0.010654  0.879776  1
  O  O61  1  0.745133  0.989346  0.379776  1
  O  O62  1  0.882737  0.289722  0.004044  1
  O  O63  1  0.021647  0.009519  0.669449  1
