# generated using pymatgen
data_Mn2NiO6
_symmetry_space_group_name_H-M   'P 1'
_cell_length_a   5.01128061
_cell_length_b   5.01128060
_cell_length_c   10.01321266
_cell_angle_alpha   90.00000000
_cell_angle_beta   90.00000000
_cell_angle_gamma   120.04774953
_symmetry_Int_Tables_number   1
_chemical_formula_structural   Mn2NiO6
_chemical_formula_sum   'Mn4 Ni2 O12'
_cell_volume   217.66687885
_cell_formula_units_Z   2
loop_
 _symmetry_equiv_pos_site_id
 _symmetry_equiv_pos_as_xyz
  1  'x, y, z'
loop_
 _atom_site_type_symbol
 _atom_site_label
 _atom_site_symmetry_multiplicity
 _atom_site_fract_x
 _atom_site_fract_y
 _atom_site_fract_z
 _atom_site_occupancy
  O  O0  1  0.672558  0.000181  0.095546  1
  O  O1  1  0.327442  0.999820  0.904454  1
  O  O2  1  0.827443  0.499819  0.595546  1
  O  O3  1  0.500179  0.172557  0.404454  1
  O  O4  1  0.827560  0.827560  0.404542  1
  O  O5  1  0.672441  0.672440  0.904541  1
  O  O6  1  0.000180  0.672558  0.095546  1
  O  O7  1  0.999819  0.327443  0.904454  1
  O  O8  1  0.499819  0.827442  0.595546  1
  O  O9  1  0.172440  0.172441  0.595458  1
  O  O10  1  0.327561  0.327561  0.095458  1
  O  O11  1  0.172558  0.500180  0.404454  1
  Mn  Mn12  1  0.166616  0.833387  0.500000  1
  Mn  Mn13  1  0.333386  0.666613  0.000000  1
  Mn  Mn14  1  0.833386  0.166615  0.500000  1
  Mn  Mn15  1  0.666614  0.333385  0.000000  1
  Ni  Ni16  1  0.499999  0.499999  0.500000  1
  Ni  Ni17  1  0.000000  0.000000  0.000000  1
