# generated using pymatgen
data_LiMnPO4
_symmetry_space_group_name_H-M   'P 1'
_cell_length_a   5.09306121
_cell_length_b   5.09306121
_cell_length_c   6.35389404
_cell_angle_alpha   90.00000000
_cell_angle_beta   90.00000000
_cell_angle_gamma   67.04743965
_symmetry_Int_Tables_number   1
_chemical_formula_structural   LiMnPO4
_chemical_formula_sum   'Li2 Mn2 P2 O8'
_cell_volume   151.76663394
_cell_formula_units_Z   2
loop_
 _symmetry_equiv_pos_site_id
 _symmetry_equiv_pos_as_xyz
  1  'x, y, z'
loop_
 _atom_site_type_symbol
 _atom_site_label
 _atom_site_symmetry_multiplicity
 _atom_site_fract_x
 _atom_site_fract_y
 _atom_site_fract_z
 _atom_site_occupancy
  Li  Li0  1  0.334454  0.334452  0.750000  1
  Li  Li1  1  0.665548  0.665547  0.250000  1
  O  O2  1  0.251358  0.251357  0.049484  1
  O  O3  1  0.748643  0.748642  0.549484  1
  O  O4  1  0.748643  0.748642  0.950516  1
  O  O5  1  0.251358  0.251357  0.450516  1
  O  O6  1  0.244408  0.688829  0.250000  1
  O  O7  1  0.755591  0.311171  0.750000  1
  O  O8  1  0.688828  0.244408  0.250000  1
  O  O9  1  0.311171  0.755592  0.750000  1
  P  P10  1  0.647193  0.647192  0.750000  1
  P  P11  1  0.352807  0.352808  0.250000  1
  Mn  Mn12  1  0.000000  0.000000  0.000000  1
  Mn  Mn13  1  0.000000  0.000000  0.500000  1
