# generated using pymatgen
data_Li3Sn2(PO4)3
_symmetry_space_group_name_H-M   'P 1'
_cell_length_a   8.77270531
_cell_length_b   13.16159627
_cell_length_c   8.90902626
_cell_angle_alpha   90.00000000
_cell_angle_beta   90.00000000
_cell_angle_gamma   91.57506221
_symmetry_Int_Tables_number   1
_chemical_formula_structural   Li3Sn2(PO4)3
_chemical_formula_sum   'Li12 Sn8 P12 O48'
_cell_volume   1028.27251092
_cell_formula_units_Z   4
loop_
 _symmetry_equiv_pos_site_id
 _symmetry_equiv_pos_as_xyz
  1  'x, y, z'
loop_
 _atom_site_type_symbol
 _atom_site_label
 _atom_site_symmetry_multiplicity
 _atom_site_fract_x
 _atom_site_fract_y
 _atom_site_fract_z
 _atom_site_occupancy
  Li  Li0  1  0.086074  0.689332  0.110238  1
  Li  Li1  1  0.145528  0.746127  0.725566  1
  Li  Li2  1  0.186082  0.163315  0.776741  1
  Li  Li3  1  0.313918  0.336685  0.276741  1
  Li  Li4  1  0.354472  0.753873  0.225566  1
  Li  Li5  1  0.413926  0.810668  0.610238  1
  Li  Li6  1  0.586074  0.189332  0.389762  1
  Li  Li7  1  0.645528  0.246127  0.774434  1
  Li  Li8  1  0.686082  0.663315  0.723259  1
  Li  Li9  1  0.813918  0.836685  0.223259  1
  Li  Li10  1  0.854472  0.253873  0.274434  1
  Li  Li11  1  0.913926  0.310668  0.889762  1
  O  O12  1  0.036376  0.441423  0.872071  1
  O  O13  1  0.050720  0.848827  0.850148  1
  O  O14  1  0.054285  0.608027  0.720553  1
  O  O15  1  0.069933  0.158536  0.559014  1
  O  O16  1  0.090728  0.551661  0.372651  1
  O  O17  1  0.116757  0.273758  1.004474  1
  O  O18  1  0.132223  0.789797  0.266397  1
  O  O19  1  0.138381  0.969339  0.367402  1
  O  O20  1  0.172983  0.093387  0.986629  1
  O  O21  1  0.203315  0.818834  0.540447  1
  O  O22  1  0.197794  0.450524  0.161327  1
  O  O23  1  0.218568  0.185726  0.242639  1
  O  O24  1  0.281432  0.314274  0.742639  1
  O  O25  1  0.296685  0.681166  0.040447  1
  O  O26  1  0.302206  0.049476  0.661327  1
  O  O27  1  0.327017  0.406613  0.486629  1
  O  O28  1  0.361619  0.530661  0.867402  1
  O  O29  1  0.367777  0.710203  0.766397  1
  O  O30  1  0.383243  0.226242  0.504474  1
  O  O31  1  0.409272  0.948339  0.872651  1
  O  O32  1  0.445715  0.891973  0.220553  1
  O  O33  1  0.430067  0.341464  0.059014  1
  O  O34  1  0.449280  0.651173  0.350148  1
  O  O35  1  0.463624  0.058577  0.372071  1
  O  O36  1  0.536376  0.941423  0.627929  1
  O  O37  1  0.550720  0.348827  0.649852  1
  O  O38  1  0.569933  0.658536  0.940986  1
  O  O39  1  0.554285  0.108027  0.779447  1
  O  O40  1  0.590728  0.051661  0.127349  1
  O  O41  1  0.616757  0.773758  0.495526  1
  O  O42  1  0.632223  0.289797  0.233603  1
  O  O43  1  0.638381  0.469339  0.132598  1
  O  O44  1  0.672983  0.593387  0.513371  1
  O  O45  1  0.697794  0.950524  0.338673  1
  O  O46  1  0.703315  0.318834  0.959553  1
  O  O47  1  0.718569  0.685726  0.257361  1
  O  O48  1  0.781431  0.814274  0.757361  1
  O  O49  1  0.802206  0.549476  0.838673  1
  O  O50  1  0.796685  0.181166  0.459553  1
  O  O51  1  0.827017  0.906613  0.013371  1
  O  O52  1  0.861619  0.030661  0.632598  1
  O  O53  1  0.867777  0.210203  0.733603  1
  O  O54  1  0.883243  0.726242  -0.004474  1
  O  O55  1  0.909272  0.448339  0.627349  1
  O  O56  1  0.930067  0.841464  0.440986  1
  O  O57  1  0.945715  0.391973  0.279447  1
  O  O58  1  0.949280  0.151173  0.149852  1
  O  O59  1  0.963624  0.558577  0.127929  1
  P  P60  1  0.045470  0.484048  0.238647  1
  P  P61  1  0.107400  0.853027  0.408263  1
  P  P62  1  0.113782  0.172990  0.099182  1
  P  P63  1  0.392600  0.646973  0.908263  1
  P  P64  1  0.386218  0.327010  0.599182  1
  P  P65  1  0.454530  0.015952  0.738647  1
  P  P66  1  0.545470  0.984048  0.261353  1
  P  P67  1  0.613782  0.672990  0.400818  1
  P  P68  1  0.607400  0.353027  0.091737  1
  P  P69  1  0.886218  0.827010  0.900818  1
  P  P70  1  0.892600  0.146973  0.591737  1
  P  P71  1  0.954530  0.515952  0.761353  1
  Sn  Sn72  1  0.229345  0.928394  0.029875  1
  Sn  Sn73  1  0.251247  0.402876  0.944004  1
  Sn  Sn74  1  0.248753  0.097124  0.444004  1
  Sn  Sn75  1  0.270655  0.571606  0.529875  1
  Sn  Sn76  1  0.729345  0.428394  0.470125  1
  Sn  Sn77  1  0.751247  0.902876  0.555996  1
  Sn  Sn78  1  0.748753  0.597124  0.055996  1
  Sn  Sn79  1  0.770655  0.071606  0.970125  1
