# generated using pymatgen
data_Li3Co3(PO4)4
_symmetry_space_group_name_H-M   'P 1'
_cell_length_a   7.58353498
_cell_length_b   7.88955749
_cell_length_c   9.97414836
_cell_angle_alpha   90.00000000
_cell_angle_beta   93.89358006
_cell_angle_gamma   90.00000000
_symmetry_Int_Tables_number   1
_chemical_formula_structural   Li3Co3(PO4)4
_chemical_formula_sum   'Li6 Co6 P8 O32'
_cell_volume   595.38324234
_cell_formula_units_Z   2
loop_
 _symmetry_equiv_pos_site_id
 _symmetry_equiv_pos_as_xyz
  1  'x, y, z'
loop_
 _atom_site_type_symbol
 _atom_site_label
 _atom_site_symmetry_multiplicity
 _atom_site_fract_x
 _atom_site_fract_y
 _atom_site_fract_z
 _atom_site_occupancy
  Li  Li0  1  0.398958  0.859518  0.951446  1
  Li  Li1  1  0.585588  0.132691  0.552048  1
  Li  Li2  1  0.412360  0.861797  0.446503  1
  Li  Li3  1  0.101042  0.359518  0.798554  1
  Li  Li4  1  0.914412  0.632691  0.197952  1
  Li  Li5  1  0.087640  0.361797  0.303497  1
  Co  Co6  1  0.476164  0.489673  0.500219  1
  Co  Co7  1  0.598575  0.146142  0.057414  1
  Co  Co8  1  0.023837  0.989673  0.249781  1
  Co  Co9  1  0.004727  0.006129  0.752634  1
  Co  Co10  1  0.901425  0.646142  0.692586  1
  Co  Co11  1  0.495273  0.506129  0.997366  1
  P  P12  1  0.190886  0.180038  0.519154  1
  P  P13  1  0.688375  0.317687  0.273644  1
  P  P14  1  0.300069  0.698405  0.730899  1
  P  P15  1  0.199931  0.198405  0.019101  1
  P  P16  1  0.696132  0.310643  0.765772  1
  P  P17  1  0.803868  0.810643  0.984228  1
  P  P18  1  0.309114  0.680038  0.230846  1
  P  P19  1  0.811625  0.817687  0.476356  1
  O  O20  1  0.344518  0.060218  0.528540  1
  O  O21  1  0.360603  0.076202  0.024949  1
  O  O22  1  0.650813  0.940453  0.975676  1
  O  O23  1  0.884321  0.812208  0.841296  1
  O  O24  1  0.908621  0.803600  0.346671  1
  O  O25  1  0.849187  0.440453  0.774324  1
  O  O26  1  0.957273  0.855902  0.087030  1
  O  O27  1  0.764526  0.132119  0.731627  1
  O  O28  1  0.384988  0.693067  0.593505  1
  O  O29  1  0.155482  0.560218  0.221460  1
  O  O30  1  0.758379  0.635526  0.531299  1
  O  O31  1  0.591379  0.303600  0.403329  1
  O  O32  1  0.956558  0.853135  0.599926  1
  O  O33  1  0.542727  0.355902  0.662970  1
  O  O34  1  0.041078  0.125752  0.409705  1
  O  O35  1  0.445582  0.642390  0.839042  1
  O  O36  1  0.115012  0.193067  0.156495  1
  O  O37  1  0.139397  0.576202  0.725051  1
  O  O38  1  0.615679  0.312208  0.908704  1
  O  O39  1  0.261205  0.377677  0.975340  1
  O  O40  1  0.458922  0.625752  0.340295  1
  O  O41  1  0.098231  0.187658  0.655696  1
  O  O42  1  0.238795  0.877677  0.774660  1
  O  O43  1  0.261509  0.864432  0.268303  1
  O  O44  1  0.735474  0.632119  0.018373  1
  O  O45  1  0.659484  0.936937  0.467406  1
  O  O46  1  0.741621  0.135526  0.218701  1
  O  O47  1  0.054418  0.142390  0.910958  1
  O  O48  1  0.401769  0.687658  0.094304  1
  O  O49  1  0.840516  0.436937  0.282594  1
  O  O50  1  0.543442  0.353135  0.150074  1
  O  O51  1  0.238491  0.364432  0.481697  1
