# generated using pymatgen
data_Mn(PO3)4
_symmetry_space_group_name_H-M   'P 1'
_cell_length_a   7.39711008
_cell_length_b   7.35566220
_cell_length_c   10.19550192
_cell_angle_alpha   83.90610605
_cell_angle_beta   66.88084964
_cell_angle_gamma   111.80141741
_symmetry_Int_Tables_number   1
_chemical_formula_structural   Mn(PO3)4
_chemical_formula_sum   'Mn2 P8 O24'
_cell_volume   452.60727521
_cell_formula_units_Z   2
loop_
 _symmetry_equiv_pos_site_id
 _symmetry_equiv_pos_as_xyz
  1  'x, y, z'
loop_
 _atom_site_type_symbol
 _atom_site_label
 _atom_site_symmetry_multiplicity
 _atom_site_fract_x
 _atom_site_fract_y
 _atom_site_fract_z
 _atom_site_occupancy
  Mn  Mn0  1  -0.000000  -0.000000  0.500000  1
  Mn  Mn1  1  -0.000000  0.499999  0.000000  1
  P  P2  1  0.285023  0.262522  0.975463  1
  P  P3  1  0.733197  0.254830  0.533222  1
  P  P4  1  0.001796  0.324549  0.686317  1
  P  P5  1  0.266803  0.745170  0.466778  1
  P  P6  1  0.714978  0.737478  0.024536  1
  P  P7  1  0.471885  0.303771  0.188673  1
  P  P8  1  0.528116  0.696229  0.811327  1
  P  P9  1  0.998203  0.675451  0.313683  1
  O  O10  1  0.494361  0.115557  0.604243  1
  O  O11  1  0.959320  0.331421  0.839895  1
  O  O12  1  0.040681  0.668579  0.160105  1
  O  O13  1  0.116038  0.331297  0.066021  1
  O  O14  1  0.097076  0.812558  0.562926  1
  O  O15  1  0.195651  0.671757  0.341912  1
  O  O16  1  0.037231  0.141528  0.645816  1
  O  O17  1  0.215260  0.530708  0.567124  1
  O  O18  1  0.381655  0.201905  0.082021  1
  O  O19  1  0.497078  0.531407  0.150580  1
  O  O20  1  0.505638  0.884443  0.395757  1
  O  O21  1  0.303330  0.192335  0.350438  1
  O  O22  1  0.307312  0.690510  0.847784  1
  O  O23  1  0.772028  0.900318  0.095825  1
  O  O24  1  0.227973  0.099682  0.904174  1
  O  O25  1  0.902924  0.187442  0.437074  1
  O  O26  1  0.696670  0.807665  0.649561  1
  O  O27  1  0.883963  0.668703  0.933979  1
  O  O28  1  0.502923  0.468593  0.849420  1
  O  O29  1  0.618344  0.798095  0.917979  1
  O  O30  1  0.784740  0.469292  0.432877  1
  O  O31  1  0.962770  0.858472  0.354185  1
  O  O32  1  0.804350  0.328243  0.658089  1
  O  O33  1  0.692687  0.309490  0.152216  1
