# generated using pymatgen
data_LiMo(PO3)5
_symmetry_space_group_name_H-M   'P 1'
_cell_length_a   10.63651249
_cell_length_b   13.82708042
_cell_length_c   9.46586266
_cell_angle_alpha   90.00000000
_cell_angle_beta   68.13330589
_cell_angle_gamma   90.00000000
_symmetry_Int_Tables_number   1
_chemical_formula_structural   LiMo(PO3)5
_chemical_formula_sum   'Li4 Mo4 P20 O60'
_cell_volume   1292.00049855
_cell_formula_units_Z   4
loop_
 _symmetry_equiv_pos_site_id
 _symmetry_equiv_pos_as_xyz
  1  'x, y, z'
loop_
 _atom_site_type_symbol
 _atom_site_label
 _atom_site_symmetry_multiplicity
 _atom_site_fract_x
 _atom_site_fract_y
 _atom_site_fract_z
 _atom_site_occupancy
  Li  Li0  1  0.515481  0.867195  0.926702  1
  Li  Li1  1  0.484519  0.367195  0.073298  1
  Li  Li2  1  0.015481  0.632805  0.926702  1
  Li  Li3  1  0.984519  0.132805  0.073298  1
  Mo  Mo4  1  0.498199  0.999229  0.501797  1
  Mo  Mo5  1  0.998199  0.500771  0.501797  1
  Mo  Mo6  1  0.501801  0.499229  0.498203  1
  Mo  Mo7  1  0.001801  0.000771  0.498203  1
  P  P8  1  0.734127  0.586945  0.176641  1
  P  P9  1  0.235965  0.748813  0.984718  1
  P  P10  1  0.255840  0.424261  0.816986  1
  P  P11  1  0.760084  0.858240  0.476664  1
  P  P12  1  0.264035  0.251187  0.015282  1
  P  P13  1  0.742432  0.356620  0.525976  1
  P  P14  1  0.260084  0.641760  0.476664  1
  P  P15  1  0.744160  0.924261  0.183014  1
  P  P16  1  0.757568  0.643380  0.474024  1
  P  P17  1  0.755840  0.075739  0.816986  1
  P  P18  1  0.234127  0.913055  0.176641  1
  P  P19  1  0.244160  0.575739  0.183014  1
  P  P20  1  0.257568  0.856620  0.474024  1
  P  P21  1  0.242432  0.143380  0.525976  1
  P  P22  1  0.739916  0.141761  0.523336  1
  P  P23  1  0.764035  0.248813  0.015282  1
  P  P24  1  0.765873  0.413055  0.823360  1
  P  P25  1  0.735965  0.751187  0.984718  1
  P  P26  1  0.239916  0.358239  0.523336  1
  P  P27  1  0.265873  0.086945  0.823360  1
  O  O28  1  0.311181  0.343998  0.894791  1
  O  O29  1  0.113712  0.521949  0.285325  1
  O  O30  1  0.119750  0.980506  0.277313  1
  O  O31  1  0.641167  0.922115  0.565158  1
  O  O32  1  0.886288  0.021949  0.714675  1
  O  O33  1  0.811181  0.156002  0.894791  1
  O  O34  1  0.720326  0.350358  0.699358  1
  O  O35  1  0.880250  0.480506  0.722687  1
  O  O36  1  0.641248  0.577704  0.561538  1
  O  O37  1  0.784533  0.249164  0.466589  1
  O  O38  1  0.220326  0.149641  0.699358  1
  O  O39  1  0.380250  0.019494  0.722687  1
  O  O40  1  0.390210  0.876902  0.495384  1
  O  O41  1  0.188819  0.656002  0.105209  1
  O  O42  1  0.142144  0.485386  0.909318  1
  O  O43  1  0.212037  0.356519  0.697961  1
  O  O44  1  0.109790  0.123098  0.504616  1
  O  O45  1  0.858833  0.077885  0.434842  1
  O  O46  1  0.392637  0.622073  0.498464  1
  O  O47  1  0.883975  0.733291  0.930459  1
  O  O48  1  0.284533  0.250836  0.466589  1
  O  O49  1  0.141167  0.577885  0.565158  1
  O  O50  1  0.712037  0.143481  0.697961  1
  O  O51  1  0.892637  0.877927  0.498464  1
  O  O52  1  0.607363  0.122073  0.501536  1
  O  O53  1  0.841068  0.333950  0.884567  1
  O  O54  1  0.287963  0.643481  0.302039  1
  O  O55  1  0.141248  0.922296  0.561538  1
  O  O56  1  0.642027  0.455744  0.935339  1
  O  O57  1  0.215467  0.749164  0.533411  1
  O  O58  1  0.857856  0.985386  0.090682  1
  O  O59  1  0.890210  0.623098  0.495384  1
  O  O60  1  0.658932  0.666050  0.115433  1
  O  O61  1  0.107363  0.377927  0.501536  1
  O  O62  1  0.659297  0.766681  0.884545  1
  O  O63  1  0.340703  0.266681  0.115455  1
  O  O64  1  0.858752  0.422296  0.438462  1
  O  O65  1  0.358833  0.422115  0.434842  1
  O  O66  1  0.779674  0.649641  0.300642  1
  O  O67  1  0.341068  0.166050  0.884567  1
  O  O68  1  0.358752  0.077704  0.438462  1
  O  O69  1  0.609790  0.376902  0.504616  1
  O  O70  1  0.688819  0.843998  0.105209  1
  O  O71  1  0.840703  0.233319  0.115455  1
  O  O72  1  0.142027  0.044256  0.935339  1
  O  O73  1  0.787963  0.856519  0.302039  1
  O  O74  1  0.715467  0.750836  0.533411  1
  O  O75  1  0.357856  0.514614  0.090682  1
  O  O76  1  0.159297  0.733319  0.884545  1
  O  O77  1  0.279674  0.850359  0.300642  1
  O  O78  1  0.616025  0.266709  0.069541  1
  O  O79  1  0.857973  0.544256  0.064661  1
  O  O80  1  0.386288  0.478051  0.714675  1
  O  O81  1  0.613712  0.978051  0.285325  1
  O  O82  1  0.357973  0.955744  0.064661  1
  O  O83  1  0.642144  0.014614  0.909318  1
  O  O84  1  0.383975  0.766709  0.930459  1
  O  O85  1  0.158932  0.833950  0.115433  1
  O  O86  1  0.116025  0.233291  0.069541  1
  O  O87  1  0.619750  0.519494  0.277313  1
