# generated using pymatgen
data_Mn3(PO4)4
_symmetry_space_group_name_H-M   'P 1'
_cell_length_a   6.32222331
_cell_length_b   10.00765534
_cell_length_c   10.88989747
_cell_angle_alpha   88.21936930
_cell_angle_beta   90.00491675
_cell_angle_gamma   71.66317902
_symmetry_Int_Tables_number   1
_chemical_formula_structural   Mn3(PO4)4
_chemical_formula_sum   'Mn6 P8 O32'
_cell_volume   653.67401274
_cell_formula_units_Z   2
loop_
 _symmetry_equiv_pos_site_id
 _symmetry_equiv_pos_as_xyz
  1  'x, y, z'
loop_
 _atom_site_type_symbol
 _atom_site_label
 _atom_site_symmetry_multiplicity
 _atom_site_fract_x
 _atom_site_fract_y
 _atom_site_fract_z
 _atom_site_occupancy
  Mn  Mn0  1  0.365168  0.307498  0.251154  1
  Mn  Mn1  1  0.634832  0.692502  0.748846  1
  Mn  Mn2  1  0.000000  0.500000  0.000000  1
  Mn  Mn3  1  0.327264  0.307556  0.750696  1
  Mn  Mn4  1  0.672736  0.692444  0.249304  1
  Mn  Mn5  1  0.500000  0.500000  0.500000  1
  P  P6  1  0.422298  0.827795  0.490517  1
  P  P7  1  0.577702  0.172205  0.509483  1
  P  P8  1  0.780066  0.402269  0.754939  1
  P  P9  1  0.219934  0.597731  0.245061  1
  P  P10  1  0.250015  0.172210  0.009178  1
  P  P11  1  0.182469  0.597678  0.745204  1
  P  P12  1  0.817531  0.402322  0.254796  1
  P  P13  1  0.749985  0.827790  0.990822  1
  O  O14  1  0.368128  0.166293  0.882201  1
  O  O15  1  0.731158  0.513050  0.359581  1
  O  O16  1  0.631872  0.833707  0.117799  1
  O  O17  1  0.465482  0.166145  0.382295  1
  O  O18  1  0.534518  0.833855  0.617705  1
  O  O19  1  0.941943  0.689875  0.721884  1
  O  O20  1  0.767301  0.035414  0.532900  1
  O  O21  1  0.243860  0.487169  0.140210  1
  O  O22  1  0.962693  0.696047  0.991984  1
  O  O23  1  0.788240  0.518933  0.145636  1
  O  O24  1  0.327121  0.690220  0.769748  1
  O  O25  1  0.341776  0.696068  0.491882  1
  O  O26  1  0.412375  0.185862  0.113692  1
  O  O27  1  0.658224  0.303932  0.508118  1
  O  O28  1  0.268842  0.486950  0.640419  1
  O  O29  1  0.058057  0.310125  0.278116  1
  O  O30  1  0.692653  0.519067  0.645802  1
  O  O31  1  0.672879  0.309780  0.230252  1
  O  O32  1  0.307347  0.480933  0.354198  1
  O  O33  1  0.587625  0.814138  0.886308  1
  O  O34  1  0.401300  0.185986  0.613894  1
  O  O35  1  0.982901  0.690170  0.269696  1
  O  O36  1  0.598700  0.814014  0.386106  1
  O  O37  1  0.197270  0.035671  0.033099  1
  O  O38  1  0.211760  0.481067  0.854364  1
  O  O39  1  0.037307  0.303953  0.008016  1
  O  O40  1  0.017099  0.309830  0.730304  1
  O  O41  1  0.368324  0.689822  0.221721  1
  O  O42  1  0.232699  0.964586  0.467100  1
  O  O43  1  0.802730  0.964329  0.966901  1
  O  O44  1  0.631676  0.310178  0.778279  1
  O  O45  1  0.756140  0.512831  0.859790  1
