# generated using pymatgen
data_Mg(Mo3S4)2
_symmetry_space_group_name_H-M   'P 1'
_cell_length_a   6.55963644
_cell_length_b   6.54420511
_cell_length_c   13.10336530
_cell_angle_alpha   93.14621390
_cell_angle_beta   93.59407421
_cell_angle_gamma   93.56664424
_symmetry_Int_Tables_number   1
_chemical_formula_structural   Mg(Mo3S4)2
_chemical_formula_sum   'Mg2 Mo12 S16'
_cell_volume   559.32592794
_cell_formula_units_Z   2
loop_
 _symmetry_equiv_pos_site_id
 _symmetry_equiv_pos_as_xyz
  1  'x, y, z'
loop_
 _atom_site_type_symbol
 _atom_site_label
 _atom_site_symmetry_multiplicity
 _atom_site_fract_x
 _atom_site_fract_y
 _atom_site_fract_z
 _atom_site_occupancy
  Mg  Mg0  1  0.072447  0.893235  0.016921  1
  Mg  Mg1  1  0.892757  0.034998  0.535603  1
  Mo  Mo2  1  0.218053  0.407107  0.773938  1
  Mo  Mo3  1  0.220312  0.407675  0.273502  1
  Mo  Mo4  1  0.408676  0.547086  0.609815  1
  Mo  Mo5  1  0.451624  0.775627  0.794790  1
  Mo  Mo6  1  0.410733  0.546158  0.111833  1
  Mo  Mo7  1  0.450305  0.783641  0.296271  1
  Mo  Mo8  1  0.545035  0.223330  0.706363  1
  Mo  Mo9  1  0.590631  0.450340  0.889122  1
  Mo  Mo10  1  0.549992  0.215518  0.203525  1
  Mo  Mo11  1  0.591044  0.452385  0.388822  1
  Mo  Mo12  1  0.780749  0.590088  0.725896  1
  Mo  Mo13  1  0.778302  0.588968  0.226350  1
  S  S14  1  0.134533  0.724820  0.687835  1
  S  S15  1  0.130922  0.730325  0.189540  1
  S  S16  1  0.271649  0.619252  0.932998  1
  S  S17  1  0.215412  0.214574  0.607683  1
  S  S18  1  0.274726  0.619898  0.431890  1
  S  S19  1  0.215015  0.215741  0.107248  1
  S  S20  1  0.375416  0.131996  0.864066  1
  S  S21  1  0.380879  0.134511  0.361002  1
  S  S22  1  0.619704  0.866396  0.635592  1
  S  S23  1  0.619855  0.864988  0.138103  1
  S  S24  1  0.784816  0.784915  0.891139  1
  S  S25  1  0.729305  0.379578  0.565970  1
  S  S26  1  0.784931  0.784937  0.391747  1
  S  S27  1  0.725644  0.378387  0.067236  1
  S  S28  1  0.864453  0.275175  0.811197  1
  S  S29  1  0.867081  0.271351  0.311004  1
