# generated using pymatgen
data_Fe3Co5O16
_symmetry_space_group_name_H-M   'P 1'
_cell_length_a   5.24069306
_cell_length_b   2.86798571
_cell_length_c   19.15952095
_cell_angle_alpha   90.00000379
_cell_angle_beta   84.92028743
_cell_angle_gamma   90.00000573
_symmetry_Int_Tables_number   1
_chemical_formula_structural   Fe3Co5O16
_chemical_formula_sum   'Fe3 Co5 O16'
_cell_volume   286.84104392
_cell_formula_units_Z   1
loop_
 _symmetry_equiv_pos_site_id
 _symmetry_equiv_pos_as_xyz
  1  'x, y, z'
loop_
 _atom_site_type_symbol
 _atom_site_label
 _atom_site_symmetry_multiplicity
 _atom_site_fract_x
 _atom_site_fract_y
 _atom_site_fract_z
 _atom_site_occupancy
  Fe  Fe0  1  0.892149  0.000000  0.379661  1
  Fe  Fe1  1  0.750000  0.500000  0.250000  1
  Fe  Fe2  1  0.607851  1.000000  0.120339  1
  Co  Co3  1  0.374325  1.000000  0.872425  1
  Co  Co4  1  0.250000  0.500000  0.750000  1
  Co  Co5  1  0.125675  0.000000  0.627575  1
  Co  Co6  1  0.011664  0.500000  0.505393  1
  Co  Co7  1  0.488336  0.500000  0.994607  1
  O  O8  1  0.626975  1.000000  0.937853  1
  O  O9  1  0.241768  0.500000  0.929562  1
  O  O10  1  0.120101  0.000000  0.807592  1
  O  O11  1  0.504169  0.500000  0.814956  1
  O  O12  1  0.379899  1.000000  0.692408  1
  O  O13  1  0.995831  0.500000  0.685044  1
  O  O14  1  0.873025  0.000000  0.562147  1
  O  O15  1  0.258232  0.500000  0.570438  1
  O  O16  1  0.153225  1.000000  0.451572  1
  O  O17  1  0.752756  0.500000  0.439126  1
  O  O18  1  0.606105  0.000000  0.306691  1
  O  O19  1  0.028413  0.500000  0.322258  1
  O  O20  1  0.893895  1.000000  0.193309  1
  O  O21  1  0.471587  0.500000  0.177742  1
  O  O22  1  0.346775  0.000000  0.048428  1
  O  O23  1  0.747244  0.500000  0.060874  1
