# generated using pymatgen
data_LiP3W2O13
_symmetry_space_group_name_H-M   'P 1'
_cell_length_a   6.48691931
_cell_length_b   22.63665393
_cell_length_c   7.11866121
_cell_angle_alpha   90.00000000
_cell_angle_beta   80.80656180
_cell_angle_gamma   90.00000000
_symmetry_Int_Tables_number   1
_chemical_formula_structural   LiP3W2O13
_chemical_formula_sum   'Li4 P12 W8 O52'
_cell_volume   1031.89191942
_cell_formula_units_Z   4
loop_
 _symmetry_equiv_pos_site_id
 _symmetry_equiv_pos_as_xyz
  1  'x, y, z'
loop_
 _atom_site_type_symbol
 _atom_site_label
 _atom_site_symmetry_multiplicity
 _atom_site_fract_x
 _atom_site_fract_y
 _atom_site_fract_z
 _atom_site_occupancy
  Li  Li0  1  0.234756  0.349609  0.789906  1
  Li  Li1  1  0.265244  0.849609  0.710094  1
  Li  Li2  1  0.734756  0.150391  0.289906  1
  Li  Li3  1  0.765244  0.650391  0.210094  1
  P  P4  1  0.117692  0.083969  0.346095  1
  P  P5  1  0.276879  0.795823  0.080247  1
  P  P6  1  0.223121  0.295823  0.419753  1
  P  P7  1  0.219020  0.599358  0.800761  1
  P  P8  1  0.382308  0.583969  0.153905  1
  P  P9  1  0.280980  0.099358  0.699239  1
  P  P10  1  0.719020  0.900642  0.300761  1
  P  P11  1  0.617692  0.416031  0.846095  1
  P  P12  1  0.780980  0.400642  0.199239  1
  P  P13  1  0.776879  0.704177  0.580247  1
  P  P14  1  0.723121  0.204177  0.919753  1
  P  P15  1  0.882308  0.916031  0.653905  1
  W  W16  1  0.212505  0.208030  0.042379  1
  W  W17  1  0.222662  0.935205  0.221904  1
  W  W18  1  0.277338  0.435205  0.278096  1
  W  W19  1  0.287495  0.708030  0.457621  1
  W  W20  1  0.712505  0.291970  0.542379  1
  W  W21  1  0.722662  0.564795  0.721904  1
  W  W22  1  0.777338  0.064795  0.778096  1
  W  W23  1  0.787495  0.791970  0.957621  1
  O  O24  1  0.018961  0.307951  0.562629  1
  O  O25  1  0.138414  0.124930  0.173968  1
  O  O26  1  0.015949  0.566106  0.795093  1
  O  O27  1  0.104825  0.915421  0.541170  1
  O  O28  1  0.223634  0.612339  0.022453  1
  O  O29  1  0.095447  0.059334  0.771946  1
  O  O30  1  0.197542  0.237264  0.317208  1
  O  O31  1  0.224391  0.844745  0.230333  1
  O  O32  1  0.206484  0.022988  0.289897  1
  O  O33  1  0.111603  0.794352  0.945612  1
  O  O34  1  0.212242  0.436413  0.525621  1
  O  O35  1  0.293516  0.522988  0.210103  1
  O  O36  1  0.275609  0.344745  0.269667  1
  O  O37  1  0.302458  0.737264  0.182792  1
  O  O38  1  0.279103  0.779010  0.558545  1
  O  O39  1  0.276366  0.112339  0.477547  1
  O  O40  1  0.231245  0.660368  0.707648  1
  O  O41  1  0.268755  0.160368  0.792352  1
  O  O42  1  0.361586  0.624930  0.326032  1
  O  O43  1  0.220897  0.279010  0.941455  1
  O  O44  1  0.287758  0.936413  0.974379  1
  O  O45  1  0.388397  0.294352  0.554388  1
  O  O46  1  0.518961  0.192049  0.062629  1
  O  O47  1  0.404553  0.559334  0.728054  1
  O  O48  1  0.515949  0.933894  0.295093  1
  O  O49  1  0.395175  0.415421  0.958830  1
  O  O50  1  0.604825  0.584579  0.041170  1
  O  O51  1  0.484051  0.066106  0.704907  1
  O  O52  1  0.595447  0.440666  0.271946  1
  O  O53  1  0.481039  0.807951  0.937371  1
  O  O54  1  0.611603  0.705648  0.445612  1
  O  O55  1  0.712242  0.063587  0.025621  1
  O  O56  1  0.779103  0.720990  0.058545  1
  O  O57  1  0.638414  0.375070  0.673968  1
  O  O58  1  0.731245  0.839632  0.207648  1
  O  O59  1  0.768755  0.339632  0.292352  1
  O  O60  1  0.723634  0.887661  0.522453  1
  O  O61  1  0.720897  0.220990  0.441455  1
  O  O62  1  0.697542  0.262736  0.817208  1
  O  O63  1  0.724391  0.655255  0.730333  1
  O  O64  1  0.706484  0.477012  0.789897  1
  O  O65  1  0.787758  0.563587  0.474379  1
  O  O66  1  0.888397  0.205648  0.054388  1
  O  O67  1  0.793516  0.977012  0.710103  1
  O  O68  1  0.775609  0.155255  0.769667  1
  O  O69  1  0.802458  0.762736  0.682792  1
  O  O70  1  0.904553  0.940666  0.228054  1
  O  O71  1  0.776366  0.387661  0.977547  1
  O  O72  1  0.895175  0.084579  0.458830  1
  O  O73  1  0.984051  0.433894  0.204907  1
  O  O74  1  0.861586  0.875070  0.826032  1
  O  O75  1  0.981039  0.692049  0.437371  1
