# generated using pymatgen
data_KNb2O5
_symmetry_space_group_name_H-M   'P 1'
_cell_length_a   12.96228970
_cell_length_b   12.93460874
_cell_length_c   4.11891412
_cell_angle_alpha   88.67569901
_cell_angle_beta   90.00000000
_cell_angle_gamma   90.00000000
_symmetry_Int_Tables_number   1
_chemical_formula_structural   KNb2O5
_chemical_formula_sum   'K6 Nb12 O30'
_cell_volume   690.40152072
_cell_formula_units_Z   6
loop_
 _symmetry_equiv_pos_site_id
 _symmetry_equiv_pos_as_xyz
  1  'x, y, z'
loop_
 _atom_site_type_symbol
 _atom_site_label
 _atom_site_symmetry_multiplicity
 _atom_site_fract_x
 _atom_site_fract_y
 _atom_site_fract_z
 _atom_site_occupancy
  K  K0  1  0.994434  0.998719  0.479832  1
  K  K1  1  0.163981  0.673370  0.486573  1
  K  K2  1  0.336019  0.173370  0.486573  1
  K  K3  1  0.505566  0.498719  0.479832  1
  K  K4  1  0.679397  0.828899  0.493041  1
  K  K5  1  0.820603  0.328899  0.493041  1
  Nb  Nb6  1  0.988827  0.513014  0.998824  1
  Nb  Nb7  1  0.071334  0.204834  0.967091  1
  Nb  Nb8  1  0.121952  0.368212  0.608308  1
  Nb  Nb9  1  0.197446  0.927315  0.986865  1
  Nb  Nb10  1  0.302554  0.427315  0.986865  1
  Nb  Nb11  1  0.378048  0.868212  0.608308  1
  Nb  Nb12  1  0.428666  0.704834  0.967091  1
  Nb  Nb13  1  0.511173  0.013014  0.998824  1
  Nb  Nb14  1  0.584664  0.293684  0.013011  1
  Nb  Nb15  1  0.707490  0.579086  0.012150  1
  Nb  Nb16  1  0.792510  0.079086  0.012150  1
  Nb  Nb17  1  0.915336  0.793684  0.013011  1
  O  O18  1  0.012260  0.490149  0.464841  1
  O  O19  1  0.001832  0.350037  0.948249  1
  O  O20  1  0.068258  0.858490  0.967180  1
  O  O21  1  0.079023  0.217897  0.451800  1
  O  O22  1  0.141414  0.066031  0.973091  1
  O  O23  1  0.150629  0.490863  0.934735  1
  O  O24  1  0.213314  0.288518  0.964200  1
  O  O25  1  0.221603  0.922770  0.467555  1
  O  O26  1  0.278397  0.422770  0.467555  1
  O  O27  1  0.286686  0.788518  0.964200  1
  O  O28  1  0.349371  0.990863  0.934735  1
  O  O29  1  0.358586  0.566031  0.973091  1
  O  O30  1  0.420977  0.717897  0.451800  1
  O  O31  1  0.431742  0.358490  0.967180  1
  O  O32  1  0.498167  0.850037  0.948249  1
  O  O33  1  0.487740  0.990149  0.464841  1
  O  O34  1  0.497946  0.157006  0.964952  1
  O  O35  1  0.569709  0.641271  0.963568  1
  O  O36  1  0.576667  0.293559  0.460388  1
  O  O37  1  0.642751  0.431405  0.964383  1
  O  O38  1  0.655162  0.997898  0.966849  1
  O  O39  1  0.712555  0.212734  0.968413  1
  O  O40  1  0.706898  0.576308  0.460323  1
  O  O41  1  0.793102  0.076308  0.460323  1
  O  O42  1  0.787445  0.712734  0.968413  1
  O  O43  1  0.844838  0.497898  0.966849  1
  O  O44  1  0.857249  0.931405  0.964383  1
  O  O45  1  0.923333  0.793559  0.460388  1
  O  O46  1  0.930291  0.141271  0.963568  1
  O  O47  1  0.002054  0.657006  0.964952  1
