# generated using pymatgen
data_Li9Cu2(HO2)4
_symmetry_space_group_name_H-M   'P 1'
_cell_length_a   5.48216185
_cell_length_b   7.51679524
_cell_length_c   10.83688914
_cell_angle_alpha   90.00002126
_cell_angle_beta   90.03410438
_cell_angle_gamma   90.00004207
_symmetry_Int_Tables_number   1
_chemical_formula_structural   Li9Cu2(HO2)4
_chemical_formula_sum   'Li18 Cu4 H8 O16'
_cell_volume   446.56957089
_cell_formula_units_Z   2
loop_
 _symmetry_equiv_pos_site_id
 _symmetry_equiv_pos_as_xyz
  1  'x, y, z'
loop_
 _atom_site_type_symbol
 _atom_site_label
 _atom_site_symmetry_multiplicity
 _atom_site_fract_x
 _atom_site_fract_y
 _atom_site_fract_z
 _atom_site_occupancy
  Li  Li0  1  0.055226  0.750000  0.049824  1
  Li  Li1  1  0.062484  0.250000  0.723886  1
  Li  Li2  1  0.222650  0.999740  0.838550  1
  Li  Li3  1  0.222650  0.500260  0.838549  1
  Li  Li4  1  0.277398  0.500000  0.338476  1
  Li  Li5  1  0.277398  -0.000000  0.338476  1
  Li  Li6  1  0.437726  0.750000  0.223712  1
  Li  Li7  1  0.444735  0.250000  0.549950  1
  Li  Li8  1  0.551773  0.750000  0.455828  1
  Li  Li9  1  0.549048  0.250000  0.771802  1
  Li  Li10  1  0.569650  0.250000  0.280800  1
  Li  Li11  1  0.698429  0.995944  0.659965  1
  Li  Li12  1  0.698429  0.504056  0.659965  1
  Li  Li13  1  0.801486  0.496138  0.159892  1
  Li  Li14  1  0.801486  0.003862  0.159892  1
  Li  Li15  1  0.930521  0.750000  0.780899  1
  Li  Li16  1  0.950853  0.750000  0.271716  1
  Li  Li17  1  0.948236  0.250000  0.955831  1
  Cu  Cu18  1  0.004830  0.250000  0.476212  1
  Cu  Cu19  1  0.495242  0.750000  0.976162  1
  Cu  Cu20  1  0.490390  0.250000  0.019217  1
  Cu  Cu21  1  0.009539  0.750000  0.519189  1
  H  H22  1  0.234706  0.026833  0.117388  1
  H  H23  1  0.234706  0.473167  0.117388  1
  H  H24  1  0.265295  0.526817  0.617391  1
  H  H25  1  0.265295  0.973183  0.617391  1
  H  H26  1  0.749834  0.012299  0.390996  1
  H  H27  1  0.749834  0.487701  0.390996  1
  H  H28  1  0.750157  0.512298  0.891002  1
  H  H29  1  0.750157  0.987702  0.891002  1
  O  O30  1  0.159189  0.562507  0.170734  1
  O  O31  1  0.159188  0.937493  0.170734  1
  O  O32  1  0.224725  0.750000  0.397512  1
  O  O33  1  0.223293  0.750000  0.885729  1
  O  O34  1  0.276193  0.250000  0.385830  1
  O  O35  1  0.275210  0.250000  0.897488  1
  O  O36  1  0.340823  0.437511  0.670752  1
  O  O37  1  0.340823  0.062489  0.670753  1
  O  O38  1  0.651091  0.957828  0.325363  1
  O  O39  1  0.651090  0.542172  0.325363  1
  O  O40  1  0.717547  0.750000  0.095084  1
  O  O41  1  0.755088  0.750000  0.620646  1
  O  O42  1  0.744926  0.250000  0.120644  1
  O  O43  1  0.782840  0.250000  0.594887  1
  O  O44  1  0.848906  0.042176  0.825372  1
  O  O45  1  0.848906  0.457824  0.825372  1
