# generated using pymatgen
data_Fe3P4O15
_symmetry_space_group_name_H-M   'P 1'
_cell_length_a   17.39669703
_cell_length_b   6.39415723
_cell_length_c   10.81786430
_cell_angle_alpha   90.00000000
_cell_angle_beta   90.00000000
_cell_angle_gamma   90.00000000
_symmetry_Int_Tables_number   1
_chemical_formula_structural   Fe3P4O15
_chemical_formula_sum   'Fe12 P16 O60'
_cell_volume   1203.34910880
_cell_formula_units_Z   4
loop_
 _symmetry_equiv_pos_site_id
 _symmetry_equiv_pos_as_xyz
  1  'x, y, z'
loop_
 _atom_site_type_symbol
 _atom_site_label
 _atom_site_symmetry_multiplicity
 _atom_site_fract_x
 _atom_site_fract_y
 _atom_site_fract_z
 _atom_site_occupancy
  Fe  Fe0  1  0.374433  0.086362  0.993935  1
  Fe  Fe1  1  0.125567  0.586362  0.493935  1
  Fe  Fe2  1  0.244594  0.310894  0.740920  1
  Fe  Fe3  1  0.625567  0.586362  0.006065  1
  Fe  Fe4  1  0.874433  0.086362  0.506065  1
  Fe  Fe5  1  0.660231  0.601940  0.493072  1
  Fe  Fe6  1  0.160231  0.601940  0.006928  1
  Fe  Fe7  1  0.339769  0.101940  0.506928  1
  Fe  Fe8  1  0.744594  0.310894  0.759080  1
  Fe  Fe9  1  0.755406  0.810894  0.259080  1
  Fe  Fe10  1  0.839769  0.101940  0.993072  1
  Fe  Fe11  1  0.255406  0.810894  0.240920  1
  P  P12  1  0.822299  0.585775  0.524445  1
  P  P13  1  0.947998  0.145891  0.772681  1
  P  P14  1  0.427387  0.963680  0.264350  1
  P  P15  1  0.708221  0.097444  0.496263  1
  P  P16  1  0.052002  0.645891  0.227319  1
  P  P17  1  0.322299  0.585775  0.975555  1
  P  P18  1  0.791779  0.597444  0.996263  1
  P  P19  1  0.072613  0.463680  0.764350  1
  P  P20  1  0.677701  0.085775  0.024445  1
  P  P21  1  0.447998  0.145891  0.727319  1
  P  P22  1  0.552002  0.645891  0.272681  1
  P  P23  1  0.572613  0.463680  0.735650  1
  P  P24  1  0.208221  0.097444  0.003737  1
  P  P25  1  0.927387  0.963680  0.235650  1
  P  P26  1  0.291779  0.597444  0.503737  1
  P  P27  1  0.177701  0.085775  0.475555  1
  O  O28  1  0.766032  0.614329  0.409579  1
  O  O29  1  0.233968  0.114329  0.590421  1
  O  O30  1  0.489397  0.367431  0.705677  1
  O  O31  1  0.868897  0.784598  0.542919  1
  O  O32  1  0.637245  0.689385  0.310905  1
  O  O33  1  0.264796  0.124258  0.889497  1
  O  O34  1  0.563459  0.579785  0.857892  1
  O  O35  1  0.045272  0.593733  0.364626  1
  O  O36  1  0.738598  0.050356  0.131156  1
  O  O37  1  0.661661  0.295690  0.471079  1
  O  O38  1  0.238598  0.050356  0.368844  1
  O  O39  1  0.764796  0.124258  0.610503  1
  O  O40  1  0.510603  0.867431  0.294323  1
  O  O41  1  0.368897  0.784598  0.957081  1
  O  O42  1  0.483963  0.985792  0.642118  1
  O  O43  1  0.912729  0.108008  0.126200  1
  O  O44  1  0.626449  0.894891  0.006820  1
  O  O45  1  0.838339  0.795690  0.971079  1
  O  O46  1  0.761402  0.550356  0.631156  1
  O  O47  1  0.266032  0.614329  0.090421  1
  O  O48  1  0.131103  0.284598  0.457081  1
  O  O49  1  0.516037  0.485792  0.357882  1
  O  O50  1  0.133089  0.287882  0.756723  1
  O  O51  1  0.873551  0.394891  0.506820  1
  O  O52  1  0.155936  0.910034  0.983828  1
  O  O53  1  0.232091  0.549786  0.610472  1
  O  O54  1  0.631103  0.284598  0.042919  1
  O  O55  1  0.016037  0.485792  0.142118  1
  O  O56  1  0.767909  0.049786  0.389528  1
  O  O57  1  0.338339  0.795690  0.528921  1
  O  O58  1  0.936541  0.079785  0.357892  1
  O  O59  1  0.362755  0.189385  0.689095  1
  O  O60  1  0.587271  0.608009  0.626200  1
  O  O61  1  0.063459  0.579785  0.642108  1
  O  O62  1  0.844064  0.410034  0.016172  1
  O  O63  1  0.267909  0.049786  0.110472  1
  O  O64  1  0.436541  0.079785  0.142108  1
  O  O65  1  0.989397  0.367431  0.794323  1
  O  O66  1  0.412729  0.108008  0.373800  1
  O  O67  1  0.733968  0.114329  0.909579  1
  O  O68  1  0.954728  0.093733  0.635374  1
  O  O69  1  0.087271  0.608009  0.873800  1
  O  O70  1  0.735204  0.624258  0.110503  1
  O  O71  1  0.373551  0.394891  0.993180  1
  O  O72  1  0.983963  0.985792  0.857882  1
  O  O73  1  0.633089  0.287882  0.743277  1
  O  O74  1  0.545272  0.593733  0.135374  1
  O  O75  1  0.261402  0.550356  0.868844  1
  O  O76  1  0.137245  0.689385  0.189095  1
  O  O77  1  0.655936  0.910034  0.516172  1
  O  O78  1  0.732091  0.549786  0.889528  1
  O  O79  1  0.126449  0.894891  0.493180  1
  O  O80  1  0.161661  0.295690  0.028921  1
  O  O81  1  0.235204  0.624258  0.389497  1
  O  O82  1  0.862755  0.189385  0.810905  1
  O  O83  1  0.344064  0.410034  0.483828  1
  O  O84  1  0.010603  0.867431  0.205677  1
  O  O85  1  0.454728  0.093733  0.864626  1
  O  O86  1  0.366911  0.787882  0.256723  1
  O  O87  1  0.866911  0.787882  0.243277  1
