# generated using pymatgen
data_Li6Mn5O12
_symmetry_space_group_name_H-M   'P 1'
_cell_length_a   5.04397376
_cell_length_b   5.04397293
_cell_length_c   9.54515978
_cell_angle_alpha   94.14368855
_cell_angle_beta   85.85631480
_cell_angle_gamma   62.16254065
_symmetry_Int_Tables_number   1
_chemical_formula_structural   Li6Mn5O12
_chemical_formula_sum   'Li6 Mn5 O12'
_cell_volume   212.62792330
_cell_formula_units_Z   1
loop_
 _symmetry_equiv_pos_site_id
 _symmetry_equiv_pos_as_xyz
  1  'x, y, z'
loop_
 _atom_site_type_symbol
 _atom_site_label
 _atom_site_symmetry_multiplicity
 _atom_site_fract_x
 _atom_site_fract_y
 _atom_site_fract_z
 _atom_site_occupancy
  Li  Li0  1  0.744373  0.744373  0.750000  1
  Li  Li1  1  0.818266  0.360073  0.514406  1
  Li  Li2  1  0.688661  0.138258  0.984712  1
  Li  Li3  1  0.360073  0.818266  0.985594  1
  Li  Li4  1  0.138258  0.688661  0.515288  1
  Li  Li5  1  0.081273  0.081273  0.750000  1
  Mn  Mn6  1  0.927680  0.927680  0.250000  1
  Mn  Mn7  1  0.580308  0.580308  0.250000  1
  Mn  Mn8  1  0.479747  0.015127  0.503648  1
  Mn  Mn9  1  0.015127  0.479747  0.996352  1
  Mn  Mn10  1  0.420610  0.420610  0.750000  1
  O  O11  1  0.826893  0.688438  0.377151  1
  O  O12  1  0.688438  0.826893  0.122849  1
  O  O13  1  0.913627  0.235281  0.130434  1
  O  O14  1  0.703377  0.447326  0.868149  1
  O  O15  1  0.740693  0.068702  0.628724  1
  O  O16  1  0.447326  0.703377  0.631851  1
  O  O17  1  0.595067  0.273208  0.362000  1
  O  O18  1  0.235281  0.913627  0.369566  1
  O  O19  1  0.351765  0.157745  0.883338  1
  O  O20  1  0.273208  0.595067  0.138000  1
  O  O21  1  0.068702  0.740693  0.871276  1
  O  O22  1  0.157745  0.351765  0.616662  1
