# generated using pymatgen
data_Mn3CrO8
_symmetry_space_group_name_H-M   'P 1'
_cell_length_a   10.20296069
_cell_length_b   10.17442095
_cell_length_c   14.41118411
_cell_angle_alpha   19.38289282
_cell_angle_beta   19.33554590
_cell_angle_gamma   33.37005213
_symmetry_Int_Tables_number   1
_chemical_formula_structural   Mn3CrO8
_chemical_formula_sum   'Mn3 Cr1 O8'
_cell_volume   142.33441651
_cell_formula_units_Z   1
loop_
 _symmetry_equiv_pos_site_id
 _symmetry_equiv_pos_as_xyz
  1  'x, y, z'
loop_
 _atom_site_type_symbol
 _atom_site_label
 _atom_site_symmetry_multiplicity
 _atom_site_fract_x
 _atom_site_fract_y
 _atom_site_fract_z
 _atom_site_occupancy
  Mn  Mn0  1  0.999612  0.504607  0.997103  1
  Mn  Mn1  1  0.500115  0.004509  0.996749  1
  Mn  Mn2  1  0.500323  0.504453  0.996450  1
  Cr  Cr3  1  0.999668  0.004014  0.996460  1
  O  O4  1  0.002659  0.004996  0.261208  1
  O  O5  1  0.002005  0.502061  0.263664  1
  O  O6  1  0.497948  0.003981  0.264986  1
  O  O7  1  0.998484  0.004777  0.731301  1
  O  O8  1  0.503895  0.506741  0.259465  1
  O  O9  1  0.998053  0.505248  0.730432  1
  O  O10  1  0.499331  0.003738  0.730680  1
  O  O11  1  0.497166  0.503834  0.731933  1
