# generated using pymatgen
data_Li2Co3(SiO4)2
_symmetry_space_group_name_H-M   'P 1'
_cell_length_a   4.98217211
_cell_length_b   8.84251248
_cell_length_c   13.46013629
_cell_angle_alpha   70.13289037
_cell_angle_beta   79.71034083
_cell_angle_gamma   89.31980313
_symmetry_Int_Tables_number   1
_chemical_formula_structural   Li2Co3(SiO4)2
_chemical_formula_sum   'Li6 Co9 Si6 O24'
_cell_volume   547.95894280
_cell_formula_units_Z   3
loop_
 _symmetry_equiv_pos_site_id
 _symmetry_equiv_pos_as_xyz
  1  'x, y, z'
loop_
 _atom_site_type_symbol
 _atom_site_label
 _atom_site_symmetry_multiplicity
 _atom_site_fract_x
 _atom_site_fract_y
 _atom_site_fract_z
 _atom_site_occupancy
  Li  Li0  1  0.436383  0.408466  0.232951  1
  Li  Li1  1  0.392707  0.057224  0.312392  1
  Li  Li2  1  0.261967  0.942120  0.531951  1
  Li  Li3  1  0.484632  0.757298  0.148025  1
  Li  Li4  1  0.720511  0.016792  0.640098  1
  Li  Li5  1  0.603116  0.873717  0.905054  1
  Co  Co6  1  0.999502  0.992349  0.000363  1
  Co  Co7  1  0.277414  0.283181  0.504670  1
  Co  Co8  1  0.208316  0.728074  0.815754  1
  Co  Co9  1  0.283282  0.474833  0.660820  1
  Co  Co10  1  0.921049  0.242567  0.157348  1
  Co  Co11  1  0.602493  0.511108  0.964323  1
  Co  Co12  1  0.679609  0.266329  0.811356  1
  Co  Co13  1  0.938779  0.562029  0.312890  1
  Co  Co14  1  0.859441  0.821153  0.463199  1
  Si  Si15  1  0.028973  0.622005  0.066555  1
  Si  Si16  1  0.481626  0.143587  0.060177  1
  Si  Si17  1  0.185418  0.097487  0.747397  1
  Si  Si18  1  0.389753  0.664193  0.404043  1
  Si  Si19  1  0.833752  0.184121  0.401884  1
  Si  Si20  1  0.763199  0.644717  0.716382  1
  O  O21  1  0.046090  0.039220  0.411627  1
  O  O22  1  0.034073  0.339664  0.392802  1
  O  O23  1  0.175142  0.588813  0.170965  1
  O  O24  1  0.076135  0.700252  0.382007  1
  O  O25  1  0.366491  0.989796  0.034494  1
  O  O26  1  0.057482  0.128801  0.639049  1
  O  O27  1  0.304039  0.192727  0.158798  1
  O  O28  1  0.386724  0.497732  0.509584  1
  O  O29  1  0.383646  0.944024  0.771954  1
  O  O30  1  0.492646  0.821877  0.428888  1
  O  O31  1  0.565201  0.630463  0.298433  1
  O  O32  1  0.383856  0.252639  0.735986  1
  O  O33  1  0.289073  0.651802  0.964665  1
  O  O34  1  0.431044  0.623611  0.723181  1
  O  O35  1  0.780449  0.093874  0.095233  1
  O  O36  1  0.578251  0.131112  0.505800  1
  O  O37  1  0.687158  0.228010  0.295734  1
  O  O38  1  0.823536  0.467088  0.079940  1
  O  O39  1  0.830465  0.774015  0.040649  1
  O  O40  1  0.531112  0.303647  0.948089  1
  O  O41  1  0.902235  0.798452  0.612877  1
  O  O42  1  0.812514  0.677538  0.826865  1
  O  O43  1  0.888191  0.472098  0.715689  1
  O  O44  1  0.919621  0.072299  0.848259  1
