# generated using pymatgen
data_Li11U4(WO5)8
_symmetry_space_group_name_H-M   'P 1'
_cell_length_a   7.81317324
_cell_length_b   12.97289049
_cell_length_c   7.68763892
_cell_angle_alpha   90.00000000
_cell_angle_beta   89.98508471
_cell_angle_gamma   90.00000000
_symmetry_Int_Tables_number   1
_chemical_formula_structural   Li11U4(WO5)8
_chemical_formula_sum   'Li11 U4 W8 O40'
_cell_volume   779.21475609
_cell_formula_units_Z   1
loop_
 _symmetry_equiv_pos_site_id
 _symmetry_equiv_pos_as_xyz
  1  'x, y, z'
loop_
 _atom_site_type_symbol
 _atom_site_label
 _atom_site_symmetry_multiplicity
 _atom_site_fract_x
 _atom_site_fract_y
 _atom_site_fract_z
 _atom_site_occupancy
  Li  Li0  1  0.000000  0.507245  0.750000  1
  Li  Li1  1  0.166782  0.505558  0.022766  1
  Li  Li2  1  0.174988  0.496453  0.484125  1
  Li  Li3  1  0.309760  0.006169  0.998931  1
  Li  Li4  1  0.310215  0.994600  0.499042  1
  Li  Li5  1  0.500000  0.987606  0.250000  1
  Li  Li6  1  0.500000  0.012325  0.750000  1
  Li  Li7  1  0.690240  0.006169  0.501069  1
  Li  Li8  1  0.689785  0.994600  0.000958  1
  Li  Li9  1  0.825012  0.496453  0.015875  1
  Li  Li10  1  0.833218  0.505558  0.477234  1
  U  U11  1  0.000000  0.019079  0.250000  1
  U  U12  1  0.000000  0.979427  0.750000  1
  U  U13  1  0.500000  0.521633  0.250000  1
  U  U14  1  0.500000  0.479467  0.750000  1
  W  W15  1  0.009578  0.255024  -0.000486  1
  W  W16  1  0.009676  0.743577  0.499922  1
  W  W17  1  0.490456  0.243077  0.499567  1
  W  W18  1  0.490416  0.756779  -0.000503  1
  W  W19  1  0.509544  0.243077  0.000433  1
  W  W20  1  0.509584  0.756779  0.500503  1
  W  W21  1  0.990422  0.255024  0.500486  1
  W  W22  1  0.990324  0.743577  0.000078  1
  O  O23  1  0.000000  0.215257  0.250000  1
  O  O24  1  0.000000  0.258796  0.750000  1
  O  O25  1  0.000000  0.730547  0.250000  1
  O  O26  1  0.000000  0.787274  0.750000  1
  O  O27  1  0.006625  0.094862  0.974010  1
  O  O28  1  0.006370  0.901404  0.470347  1
  O  O29  1  0.003866  0.394376  0.025609  1
  O  O30  1  0.006574  0.605130  0.550538  1
  O  O31  1  0.247731  0.018755  0.250158  1
  O  O32  1  0.248109  0.980275  0.749853  1
  O  O33  1  0.245766  0.247173  0.499577  1
  O  O34  1  0.245223  0.750755  0.000046  1
  O  O35  1  0.254772  0.247923  0.000413  1
  O  O36  1  0.254713  0.751239  0.499517  1
  O  O37  1  0.258815  0.522429  0.251924  1
  O  O38  1  0.255432  0.480633  0.749709  1
  O  O39  1  0.495446  0.102176  0.542583  1
  O  O40  1  0.494662  0.897537  0.042308  1
  O  O41  1  0.493999  0.400438  0.471071  1
  O  O42  1  0.494750  0.599768  0.970562  1
  O  O43  1  0.500000  0.230098  0.250000  1
  O  O44  1  0.500000  0.716269  0.250000  1
  O  O45  1  0.500000  0.770196  0.750000  1
  O  O46  1  0.500000  0.283960  0.750000  1
  O  O47  1  0.506001  0.400438  0.028929  1
  O  O48  1  0.505250  0.599768  0.529438  1
  O  O49  1  0.504554  0.102176  0.957417  1
  O  O50  1  0.505338  0.897537  0.457692  1
  O  O51  1  0.744568  0.480633  0.750291  1
  O  O52  1  0.741185  0.522429  0.248076  1
  O  O53  1  0.745228  0.247923  0.499587  1
  O  O54  1  0.745287  0.751239  0.000483  1
  O  O55  1  0.754234  0.247173  0.000423  1
  O  O56  1  0.754777  0.750755  0.499954  1
  O  O57  1  0.752269  0.018755  0.249842  1
  O  O58  1  0.751891  0.980275  0.750147  1
  O  O59  1  0.996134  0.394376  0.474391  1
  O  O60  1  0.993426  0.605130  0.949462  1
  O  O61  1  0.993375  0.094862  0.525990  1
  O  O62  1  0.993630  0.901404  0.029653  1
