# generated using pymatgen
data_VCoO4
_symmetry_space_group_name_H-M   'P 1'
_cell_length_a   5.64510615
_cell_length_b   5.64510615
_cell_length_c   5.64510615
_cell_angle_alpha   60.50910659
_cell_angle_beta   87.60933985
_cell_angle_gamma   117.77508876
_symmetry_Int_Tables_number   1
_chemical_formula_structural   VCoO4
_chemical_formula_sum   'V2 Co2 O8'
_cell_volume   129.67579014
_cell_formula_units_Z   2
loop_
 _symmetry_equiv_pos_site_id
 _symmetry_equiv_pos_as_xyz
  1  'x, y, z'
loop_
 _atom_site_type_symbol
 _atom_site_label
 _atom_site_symmetry_multiplicity
 _atom_site_fract_x
 _atom_site_fract_y
 _atom_site_fract_z
 _atom_site_occupancy
  V  V0  1  0.125782  0.250000  0.124218  1
  V  V1  1  0.874218  0.750000  0.875782  1
  Co  Co2  1  0.500000  0.000000  0.500000  1
  Co  Co3  1  0.000000  0.500000  0.500000  1
  O  O4  1  0.764572  0.020757  0.256185  1
  O  O5  1  0.749147  0.474888  0.275965  1
  O  O6  1  0.250853  0.974888  0.274259  1
  O  O7  1  0.223059  0.479243  0.256185  1
  O  O8  1  0.776941  0.520757  0.743815  1
  O  O9  1  0.749147  0.025112  0.725741  1
  O  O10  1  0.250853  0.525112  0.724035  1
  O  O11  1  0.235428  0.979243  0.743815  1
