# generated using pymatgen
data_Mn2CrO6
_symmetry_space_group_name_H-M   'P 1'
_cell_length_a   15.00209551
_cell_length_b   9.55325275
_cell_length_c   9.55325302
_cell_angle_alpha   17.52168674
_cell_angle_beta   17.06692008
_cell_angle_gamma   17.06691532
_symmetry_Int_Tables_number   1
_chemical_formula_structural   Mn2CrO6
_chemical_formula_sum   'Mn2 Cr1 O6'
_cell_volume   104.63261062
_cell_formula_units_Z   1
loop_
 _symmetry_equiv_pos_site_id
 _symmetry_equiv_pos_as_xyz
  1  'x, y, z'
loop_
 _atom_site_type_symbol
 _atom_site_label
 _atom_site_symmetry_multiplicity
 _atom_site_fract_x
 _atom_site_fract_y
 _atom_site_fract_z
 _atom_site_occupancy
  Mn  Mn0  1  0.997930  0.001289  0.001289  1
  Mn  Mn1  1  0.335403  0.998711  0.998711  1
  Cr  Cr2  1  0.666667  0.000000  0.000000  1
  O  O3  1  0.240251  0.268615  0.268615  1
  O  O4  1  0.579568  0.264067  0.264067  1
  O  O5  1  0.093082  0.731385  0.731385  1
  O  O6  1  0.913687  0.263935  0.263935  1
  O  O7  1  0.419646  0.736065  0.736065  1
  O  O8  1  0.753765  0.735933  0.735933  1
