# generated using pymatgen
data_Li6(NiO2)11
_symmetry_space_group_name_H-M   'P 1'
_cell_length_a   7.46183775
_cell_length_b   7.70542774
_cell_length_c   7.64020914
_cell_angle_alpha   84.90396624
_cell_angle_beta   65.89183222
_cell_angle_gamma   69.31476065
_symmetry_Int_Tables_number   1
_chemical_formula_structural   Li6(NiO2)11
_chemical_formula_sum   'Li6 Ni11 O22'
_cell_volume   374.32970823
_cell_formula_units_Z   1
loop_
 _symmetry_equiv_pos_site_id
 _symmetry_equiv_pos_as_xyz
  1  'x, y, z'
loop_
 _atom_site_type_symbol
 _atom_site_label
 _atom_site_symmetry_multiplicity
 _atom_site_fract_x
 _atom_site_fract_y
 _atom_site_fract_z
 _atom_site_occupancy
  Li  Li0  1  0.180730  0.543653  0.456704  1
  Li  Li1  1  0.364730  0.106915  0.893592  1
  Li  Li2  1  0.547622  0.630665  0.360888  1
  Li  Li3  1  0.638284  0.909163  0.091566  1
  Li  Li4  1  0.815600  0.438377  0.561627  1
  Li  Li5  1  0.999080  0.002990  0.003089  1
  Ni  Ni6  1  0.225627  0.181219  0.318715  1
  Ni  Ni7  1  0.314849  0.457294  0.049020  1
  Ni  Ni8  1  0.050783  0.632239  0.859758  1
  Ni  Ni9  1  0.499705  0.001436  0.500805  1
  Ni  Ni10  1  0.136734  0.912364  0.592802  1
  Ni  Ni11  1  0.588963  0.271994  0.225658  1
  Ni  Ni12  1  0.412246  0.728304  0.771860  1
  Ni  Ni13  1  0.864937  0.084934  0.405607  1
  Ni  Ni14  1  0.948417  0.367181  0.141883  1
  Ni  Ni15  1  0.681559  0.544525  0.954338  1
  Ni  Ni16  1  0.774862  0.817029  0.680882  1
  O  O17  1  0.106423  0.121833  0.165837  1
  O  O18  1  0.070052  0.425677  0.294800  1
  O  O19  1  0.179597  0.711192  0.988735  1
  O  O20  1  0.014520  0.824465  0.465722  1
  O  O21  1  0.455210  0.197458  0.095651  1
  O  O22  1  0.353910  0.262273  0.445541  1
  O  O23  1  0.181257  0.384580  0.922076  1
  O  O24  1  0.443125  0.519446  0.190210  1
  O  O25  1  0.295246  0.666705  0.618448  1
  O  O26  1  0.727110  0.024089  0.252642  1
  O  O27  1  0.368216  0.932601  0.366886  1
  O  O28  1  0.622551  0.058795  0.643401  1
  O  O29  1  0.261379  0.975051  0.739441  1
  O  O30  1  0.714460  0.354336  0.356892  1
  O  O31  1  0.560848  0.485148  0.808137  1
  O  O32  1  0.794403  0.613998  0.103583  1
  O  O33  1  0.645997  0.737432  0.551981  1
  O  O34  1  0.539571  0.810800  0.903971  1
  O  O35  1  0.006660  0.159544  0.544261  1
  O  O36  1  0.827293  0.283922  0.009255  1
  O  O37  1  0.920412  0.570626  0.719266  1
  O  O38  1  0.907936  0.887216  0.815562  1
