# generated using pymatgen
data_LiFeH12(SO7)2
_symmetry_space_group_name_H-M   'P 1'
_cell_length_a   8.99011325
_cell_length_b   11.89535839
_cell_length_c   6.02515715
_cell_angle_alpha   90.00000000
_cell_angle_beta   105.67922341
_cell_angle_gamma   90.00000000
_symmetry_Int_Tables_number   1
_chemical_formula_structural   LiFeH12(SO7)2
_chemical_formula_sum   'Li2 Fe2 H24 S4 O28'
_cell_volume   620.35824293
_cell_formula_units_Z   2
loop_
 _symmetry_equiv_pos_site_id
 _symmetry_equiv_pos_as_xyz
  1  'x, y, z'
loop_
 _atom_site_type_symbol
 _atom_site_label
 _atom_site_symmetry_multiplicity
 _atom_site_fract_x
 _atom_site_fract_y
 _atom_site_fract_z
 _atom_site_occupancy
  Li  Li0  1  0.601600  0.105439  0.351892  1
  Li  Li1  1  0.898400  0.605439  0.648108  1
  Fe  Fe2  1  0.003038  0.000345  0.003308  1
  Fe  Fe3  1  0.496962  0.500345  0.996692  1
  H  H4  1  0.111556  0.066499  0.668026  1
  H  H5  1  0.034430  0.856172  0.348391  1
  H  H6  1  0.217083  0.401809  0.936712  1
  H  H7  1  0.250461  0.635446  0.906951  1
  H  H8  1  0.355284  0.309498  0.005177  1
  H  H9  1  0.213932  0.102178  0.336961  1
  H  H10  1  0.286068  0.602178  0.663039  1
  H  H11  1  0.144716  0.809498  0.994823  1
  H  H12  1  0.249539  0.135446  0.093049  1
  H  H13  1  0.282917  0.901809  0.063288  1
  H  H14  1  0.465570  0.356172  0.651609  1
  H  H15  1  0.388444  0.566499  0.331974  1
  H  H16  1  0.606507  0.443856  0.658512  1
  H  H17  1  0.537286  0.647897  0.342159  1
  H  H18  1  0.721713  0.092329  0.930351  1
  H  H19  1  0.757309  0.868192  0.909680  1
  H  H20  1  0.850110  0.190907  0.009542  1
  H  H21  1  0.711627  0.408722  0.332453  1
  H  H22  1  0.788373  0.908722  0.667547  1
  H  H23  1  0.649890  0.690907  0.990458  1
  H  H24  1  0.742691  0.368192  0.090320  1
  H  H25  1  0.778287  0.592329  0.069649  1
  H  H26  1  0.962714  0.147897  0.657841  1
  H  H27  1  0.893493  0.943856  0.341488  1
  S  S28  1  0.080654  0.635768  0.263364  1
  S  S29  1  0.419346  0.135768  0.736636  1
  S  S30  1  0.606261  0.863563  0.268937  1
  S  S31  1  0.893739  0.363563  0.731063  1
  O  O32  1  0.008394  0.071179  0.704642  1
  O  O33  1  0.044713  0.420232  0.780625  1
  O  O34  1  0.170465  0.890518  0.978181  1
  O  O35  1  0.060031  0.730680  0.414957  1
  O  O36  1  0.093976  0.676824  0.031331  1
  O  O37  1  0.167192  0.113644  0.166229  1
  O  O38  1  0.274525  0.075104  0.615150  1
  O  O39  1  0.225475  0.575104  0.384850  1
  O  O40  1  0.332808  0.613644  0.833771  1
  O  O41  1  0.406024  0.176824  0.968669  1
  O  O42  1  0.439969  0.230680  0.585043  1
  O  O43  1  0.329535  0.390518  0.021819  1
  O  O44  1  0.504675  0.435410  0.696762  1
  O  O45  1  0.554002  0.059686  0.770944  1
  O  O46  1  0.455287  0.920232  0.219375  1
  O  O47  1  0.491606  0.571179  0.295358  1
  O  O48  1  0.670448  0.608999  0.967842  1
  O  O49  1  0.621287  0.766414  0.429098  1
  O  O50  1  0.643281  0.824827  0.054276  1
  O  O51  1  0.660158  0.388545  0.168500  1
  O  O52  1  0.777141  0.453561  0.613297  1
  O  O53  1  0.722859  0.953561  0.386703  1
  O  O54  1  0.839842  0.888545  0.831500  1
  O  O55  1  0.856719  0.324827  0.945724  1
  O  O56  1  0.878713  0.266414  0.570902  1
  O  O57  1  0.829552  0.108999  0.032158  1
  O  O58  1  0.945998  0.559686  0.229056  1
  O  O59  1  0.995325  0.935410  0.303238  1
