# generated using pymatgen
data_Mn13Fe3O32
_symmetry_space_group_name_H-M   'P 1'
_cell_length_a   8.30055338
_cell_length_b   10.15296785
_cell_length_c   8.30055338
_cell_angle_alpha   66.52728482
_cell_angle_beta   89.49453076
_cell_angle_gamma   114.33208926
_symmetry_Int_Tables_number   1
_chemical_formula_structural   Mn13Fe3O32
_chemical_formula_sum   'Mn13 Fe3 O32'
_cell_volume   571.99648872
_cell_formula_units_Z   1
loop_
 _symmetry_equiv_pos_site_id
 _symmetry_equiv_pos_as_xyz
  1  'x, y, z'
loop_
 _atom_site_type_symbol
 _atom_site_label
 _atom_site_symmetry_multiplicity
 _atom_site_fract_x
 _atom_site_fract_y
 _atom_site_fract_z
 _atom_site_occupancy
  Mn  Mn0  1  0.250000  0.000000  0.750000  1
  Mn  Mn1  1  0.750000  0.000000  0.250000  1
  Mn  Mn2  1  0.375126  0.249885  0.874693  1
  Mn  Mn3  1  0.874893  0.250276  0.374713  1
  Mn  Mn4  1  0.624990  0.250276  0.624617  1
  Mn  Mn5  1  0.124578  0.249885  0.125241  1
  Mn  Mn6  1  0.750000  0.500000  0.250000  1
  Mn  Mn7  1  0.999410  0.499831  0.499579  1
  Mn  Mn8  1  0.500590  0.500169  0.000421  1
  Mn  Mn9  1  0.875010  0.749724  0.875383  1
  Mn  Mn10  1  0.375422  0.750115  0.374759  1
  Mn  Mn11  1  0.625107  0.749724  0.125287  1
  Mn  Mn12  1  0.124874  0.750115  0.625307  1
  Fe  Fe13  1  0.499937  0.000000  0.000063  1
  Fe  Fe14  1  0.000063  0.000000  0.499937  1
  Fe  Fe15  1  0.250000  0.500000  0.750000  1
  O  O16  1  0.491442  0.016432  0.751932  1
  O  O17  1  0.768365  0.016432  0.475010  1
  O  O18  1  0.992108  0.017479  0.250508  1
  O  O19  1  0.267985  0.017479  0.974629  1
  O  O20  1  0.882534  0.234668  0.148076  1
  O  O21  1  0.382745  0.234668  0.647866  1
  O  O22  1  0.104312  0.241805  0.361512  1
  O  O23  1  0.603317  0.241805  0.862507  1
  O  O24  1  0.367261  0.265835  0.101427  1
  O  O25  1  0.146846  0.261664  0.885182  1
  O  O26  1  0.867478  0.265239  0.602240  1
  O  O27  1  0.648504  0.265412  0.383092  1
  O  O28  1  0.976999  0.484332  0.273981  1
  O  O29  1  0.257997  0.483964  0.996347  1
  O  O30  1  0.480311  0.483964  0.774033  1
  O  O31  1  0.758313  0.484332  0.492667  1
  O  O32  1  0.242003  0.516036  0.503653  1
  O  O33  1  0.019689  0.516036  0.725967  1
  O  O34  1  0.523001  0.515668  0.226019  1
  O  O35  1  0.741687  0.515668  0.007333  1
  O  O36  1  0.353154  0.738336  0.614818  1
  O  O37  1  0.851496  0.734588  0.116908  1
  O  O38  1  0.132739  0.734165  0.398573  1
  O  O39  1  0.632522  0.734761  0.897760  1
  O  O40  1  0.117255  0.765332  0.852134  1
  O  O41  1  0.896683  0.758195  0.637493  1
  O  O42  1  0.395688  0.758195  0.138488  1
  O  O43  1  0.617466  0.765332  0.351924  1
  O  O44  1  0.008558  0.983568  0.748068  1
  O  O45  1  0.731635  0.983568  0.024990  1
  O  O46  1  0.232015  0.982521  0.525371  1
  O  O47  1  0.507892  0.982521  0.249492  1
