# generated using pymatgen
data_Ti3VO8
_symmetry_space_group_name_H-M   'P 1'
_cell_length_a   5.95509253
_cell_length_b   5.94592456
_cell_length_c   9.00915184
_cell_angle_alpha   89.51787449
_cell_angle_beta   90.24069289
_cell_angle_gamma   119.94908655
_symmetry_Int_Tables_number   1
_chemical_formula_structural   Ti3VO8
_chemical_formula_sum   'Ti6 V2 O16'
_cell_volume   276.39466252
_cell_formula_units_Z   2
loop_
 _symmetry_equiv_pos_site_id
 _symmetry_equiv_pos_as_xyz
  1  'x, y, z'
loop_
 _atom_site_type_symbol
 _atom_site_label
 _atom_site_symmetry_multiplicity
 _atom_site_fract_x
 _atom_site_fract_y
 _atom_site_fract_z
 _atom_site_occupancy
  Ti  Ti0  1  0.165409  0.830778  0.209305  1
  Ti  Ti1  1  0.169126  0.334743  0.208980  1
  Ti  Ti2  1  0.665686  0.829138  0.209179  1
  Ti  Ti3  1  0.334314  0.163453  0.709179  1
  Ti  Ti4  1  0.834591  0.665368  0.709305  1
  Ti  Ti5  1  0.830874  0.165618  0.708980  1
  V  V6  1  0.333481  0.665943  0.485407  1
  V  V7  1  0.666519  0.332461  0.985407  1
  O  O8  1  0.171458  0.830975  0.604525  1
  O  O9  1  0.049564  0.525100  0.339414  1
  O  O10  1  0.333335  0.667814  0.098054  1
  O  O11  1  0.999057  0.999897  0.312368  1
  O  O12  1  0.000943  0.000840  0.812368  1
  O  O13  1  0.175764  0.350066  0.604303  1
  O  O14  1  0.472648  0.947154  0.342458  1
  O  O15  1  0.475801  0.523757  0.338605  1
  O  O16  1  0.343509  0.172155  0.105260  1
  O  O17  1  0.656491  0.828646  0.605260  1
  O  O18  1  0.527352  0.474505  0.842458  1
  O  O19  1  0.524199  0.047957  0.838605  1
  O  O20  1  0.666665  0.334478  0.598054  1
  O  O21  1  0.828542  0.659518  0.104525  1
  O  O22  1  0.950436  0.475534  0.839414  1
  O  O23  1  0.824236  0.174302  0.104303  1
