# generated using pymatgen
data_MnCo3O8
_symmetry_space_group_name_H-M   'P 1'
_cell_length_a   5.63065476
_cell_length_b   5.63065472
_cell_length_c   5.71932191
_cell_angle_alpha   60.51152333
_cell_angle_beta   119.48847863
_cell_angle_gamma   120.00000312
_symmetry_Int_Tables_number   1
_chemical_formula_structural   MnCo3O8
_chemical_formula_sum   'Mn1 Co3 O8'
_cell_volume   129.19991517
_cell_formula_units_Z   1
loop_
 _symmetry_equiv_pos_site_id
 _symmetry_equiv_pos_as_xyz
  1  'x, y, z'
loop_
 _atom_site_type_symbol
 _atom_site_label
 _atom_site_symmetry_multiplicity
 _atom_site_fract_x
 _atom_site_fract_y
 _atom_site_fract_z
 _atom_site_occupancy
  Mn  Mn0  1  0.500000  0.500000  0.500000  1
  Co  Co1  1  0.500000  0.500000  0.000000  1
  Co  Co2  1  0.500000  0.000000  0.000000  1
  Co  Co3  1  0.000000  0.500000  0.000000  1
  O  O4  1  0.738786  0.705444  0.772128  1
  O  O5  1  0.738786  0.261214  0.772128  1
  O  O6  1  0.264666  0.735334  0.793997  1
  O  O7  1  0.294556  0.261214  0.772128  1
  O  O8  1  0.705444  0.738786  0.227872  1
  O  O9  1  0.735334  0.264666  0.206003  1
  O  O10  1  0.261214  0.738786  0.227872  1
  O  O11  1  0.261214  0.294556  0.227872  1
