# generated using pymatgen
data_Mn3NbO8
_symmetry_space_group_name_H-M   'P 1'
_cell_length_a   5.91756329
_cell_length_b   5.91711213
_cell_length_c   9.32599832
_cell_angle_alpha   89.70207620
_cell_angle_beta   90.14895505
_cell_angle_gamma   119.99746809
_symmetry_Int_Tables_number   1
_chemical_formula_structural   Mn3NbO8
_chemical_formula_sum   'Mn6 Nb2 O16'
_cell_volume   282.80291651
_cell_formula_units_Z   2
loop_
 _symmetry_equiv_pos_site_id
 _symmetry_equiv_pos_as_xyz
  1  'x, y, z'
loop_
 _atom_site_type_symbol
 _atom_site_label
 _atom_site_symmetry_multiplicity
 _atom_site_fract_x
 _atom_site_fract_y
 _atom_site_fract_z
 _atom_site_occupancy
  Mn  Mn0  1  0.167339  0.831208  0.214239  1
  Mn  Mn1  1  0.167452  0.334442  0.213387  1
  Mn  Mn2  1  0.664012  0.831304  0.214003  1
  Mn  Mn3  1  0.335988  0.167291  0.714003  1
  Mn  Mn4  1  0.832661  0.663869  0.714239  1
  Mn  Mn5  1  0.832548  0.166991  0.713387  1
  Nb  Nb6  1  0.333492  0.666641  0.497838  1
  Nb  Nb7  1  0.666508  0.333149  0.997838  1
  O  O8  1  0.166819  0.832528  0.596945  1
  O  O9  1  0.041111  0.524153  0.335903  1
  O  O10  1  0.333200  0.666643  0.112756  1
  O  O11  1  0.999875  0.999518  0.309060  1
  O  O12  1  0.000125  0.999644  0.809060  1
  O  O13  1  0.169320  0.335785  0.596291  1
  O  O14  1  0.478197  0.958954  0.335127  1
  O  O15  1  0.481492  0.522810  0.335998  1
  O  O16  1  0.335139  0.164837  0.096314  1
  O  O17  1  0.664861  0.829698  0.596314  1
  O  O18  1  0.521803  0.480757  0.835127  1
  O  O19  1  0.518508  0.041319  0.835998  1
  O  O20  1  0.666800  0.333443  0.612756  1
  O  O21  1  0.833181  0.665708  0.096945  1
  O  O22  1  0.958889  0.483042  0.835903  1
  O  O23  1  0.830681  0.166466  0.096291  1
