# generated using pymatgen
data_Li3V(Si2O5)3
_symmetry_space_group_name_H-M   'P 1'
_cell_length_a   9.90784617
_cell_length_b   7.90621053
_cell_length_c   15.00292042
_cell_angle_alpha   89.95395027
_cell_angle_beta   89.88372675
_cell_angle_gamma   90.10089635
_symmetry_Int_Tables_number   1
_chemical_formula_structural   Li3V(Si2O5)3
_chemical_formula_sum   'Li12 V4 Si24 O60'
_cell_volume   1175.22690686
_cell_formula_units_Z   4
loop_
 _symmetry_equiv_pos_site_id
 _symmetry_equiv_pos_as_xyz
  1  'x, y, z'
loop_
 _atom_site_type_symbol
 _atom_site_label
 _atom_site_symmetry_multiplicity
 _atom_site_fract_x
 _atom_site_fract_y
 _atom_site_fract_z
 _atom_site_occupancy
  Li  Li0  1  0.921922  0.252730  0.063584  1
  Li  Li1  1  0.580578  0.250806  0.565655  1
  Li  Li2  1  0.497567  0.003891  0.243423  1
  Li  Li3  1  0.498254  0.499594  0.242138  1
  Li  Li4  1  0.501006  0.002615  0.756795  1
  Li  Li5  1  0.499772  0.499087  0.759078  1
  Li  Li6  1  0.419196  0.748837  0.435538  1
  Li  Li7  1  0.080755  0.748854  0.936772  1
  Li  Li8  1  0.997675  0.001549  0.257003  1
  Li  Li9  1  0.998972  0.500595  0.256152  1
  Li  Li10  1  0.004026  0.496540  0.739946  1
  Li  Li11  1  0.001746  0.999403  0.743115  1
  V  V12  1  0.747405  0.250740  0.250943  1
  V  V13  1  0.753234  0.250803  0.751623  1
  V  V14  1  0.252297  0.748791  0.748851  1
  V  V15  1  0.246867  0.753143  0.249471  1
  Si  Si16  1  0.972201  0.749976  0.401748  1
  Si  Si17  1  0.972844  0.748967  0.598662  1
  Si  Si18  1  0.793197  0.559872  0.098710  1
  Si  Si19  1  0.793418  0.940712  0.098660  1
  Si  Si20  1  0.796090  0.942445  0.899795  1
  Si  Si21  1  0.796676  0.558689  0.899385  1
  Si  Si22  1  0.705116  0.943421  0.400767  1
  Si  Si23  1  0.704837  0.561810  0.600361  1
  Si  Si24  1  0.704914  0.558958  0.400652  1
  Si  Si25  1  0.707571  0.941454  0.599792  1
  Si  Si26  1  0.526204  0.749793  0.098261  1
  Si  Si27  1  0.529193  0.747723  0.900874  1
  Si  Si28  1  0.472640  0.248156  0.901245  1
  Si  Si29  1  0.469599  0.250135  0.097473  1
  Si  Si30  1  0.293404  0.439345  0.400278  1
  Si  Si31  1  0.294874  0.057520  0.599169  1
  Si  Si32  1  0.292983  0.060019  0.400612  1
  Si  Si33  1  0.296183  0.441549  0.599318  1
  Si  Si34  1  0.201894  0.058273  0.099034  1
  Si  Si35  1  0.206500  0.438512  0.899841  1
  Si  Si36  1  0.205722  0.058865  0.900270  1
  Si  Si37  1  0.202676  0.443444  0.099490  1
  Si  Si38  1  0.028618  0.250329  0.597739  1
  Si  Si39  1  0.026818  0.250782  0.401474  1
  O  O40  1  0.955011  0.250588  0.500013  1
  O  O41  1  0.930350  0.250092  0.316963  1
  O  O42  1  0.932929  0.252612  0.682853  1
  O  O43  1  0.868702  0.586910  0.394774  1
  O  O44  1  0.868951  0.914063  0.396534  1
  O  O45  1  0.868962  0.585774  0.605890  1
  O  O46  1  0.871320  0.915749  0.605416  1
  O  O47  1  0.862404  0.749913  0.107108  1
  O  O48  1  0.870392  0.750789  0.897878  1
  O  O49  1  0.847561  0.073021  0.171234  1
  O  O50  1  0.848886  0.425419  0.169789  1
  O  O51  1  0.845329  0.060617  0.820191  1
  O  O52  1  0.846430  0.440512  0.819647  1
  O  O53  1  0.836181  0.479606  -0.000727  1
  O  O54  1  0.836017  0.021208  -0.000410  1
  O  O55  1  0.664869  0.480674  0.500228  1
  O  O56  1  0.663280  0.021452  0.500399  1
  O  O57  1  0.650499  0.076566  0.670111  1
  O  O58  1  0.655485  0.060036  0.320177  1
  O  O59  1  0.655685  0.440197  0.320498  1
  O  O60  1  0.650182  0.426916  0.671598  1
  O  O61  1  0.631925  0.750482  0.398726  1
  O  O62  1  0.637046  0.752495  0.608183  1
  O  O63  1  0.629698  0.914876  0.103744  1
  O  O64  1  0.629229  0.584911  0.106551  1
  O  O65  1  0.632527  0.913050  0.896191  1
  O  O66  1  0.633500  0.584563  0.894260  1
  O  O67  1  0.564450  0.248991  0.182961  1
  O  O68  1  0.569331  0.248638  0.816649  1
  O  O69  1  0.544182  0.248033  -0.000071  1
  O  O70  1  0.456564  0.746518  -0.000641  1
  O  O71  1  0.427484  0.750287  0.182418  1
  O  O72  1  0.432233  0.746683  0.816743  1
  O  O73  1  0.369772  0.082863  0.894165  1
  O  O74  1  0.370969  0.413836  0.895578  1
  O  O75  1  0.365745  0.085023  0.102629  1
  O  O76  1  0.366337  0.415020  0.102976  1
  O  O77  1  0.368819  0.249385  0.599571  1
  O  O78  1  0.361291  0.249047  0.391447  1
  O  O79  1  0.346777  0.559568  0.678944  1
  O  O80  1  0.343219  0.940769  0.679499  1
  O  O81  1  0.349019  0.574178  0.329094  1
  O  O82  1  0.348545  0.928151  0.328919  1
  O  O83  1  0.334643  0.978959  0.499516  1
  O  O84  1  0.336358  0.519447  0.499492  1
  O  O85  1  0.162502  0.979544  0.999199  1
  O  O86  1  0.163623  0.519029  -0.001368  1
  O  O87  1  0.152552  0.561887  0.179006  1
  O  O88  1  0.150565  0.941144  0.179083  1
  O  O89  1  0.151854  0.570687  0.827806  1
  O  O90  1  0.149003  0.924887  0.829315  1
  O  O91  1  0.129785  0.250407  0.100900  1
  O  O92  1  0.138332  0.248457  0.890546  1
  O  O93  1  0.132529  0.414873  0.602972  1
  O  O94  1  0.129160  0.417390  0.394367  1
  O  O95  1  0.128845  0.085541  0.395197  1
  O  O96  1  0.131181  0.085294  0.603737  1
  O  O97  1  0.069661  0.752008  0.317593  1
  O  O98  1  0.070470  0.750719  0.682187  1
  O  O99  1  0.044613  0.749369  0.500058  1
