# generated using pymatgen
data_CrO3
_symmetry_space_group_name_H-M   'P 1'
_cell_length_a   5.56087060
_cell_length_b   8.66651359
_cell_length_c   5.33827061
_cell_angle_alpha   90.00000000
_cell_angle_beta   90.00000000
_cell_angle_gamma   90.00000000
_symmetry_Int_Tables_number   1
_chemical_formula_structural   CrO3
_chemical_formula_sum   'Cr4 O12'
_cell_volume   257.26920063
_cell_formula_units_Z   4
loop_
 _symmetry_equiv_pos_site_id
 _symmetry_equiv_pos_as_xyz
  1  'x, y, z'
loop_
 _atom_site_type_symbol
 _atom_site_label
 _atom_site_symmetry_multiplicity
 _atom_site_fract_x
 _atom_site_fract_y
 _atom_site_fract_z
 _atom_site_occupancy
  Cr  Cr0  1  0.226205  0.689650  0.571501  1
  Cr  Cr1  1  0.273795  0.189650  0.071501  1
  Cr  Cr2  1  0.726205  0.689650  0.928499  1
  Cr  Cr3  1  0.773795  0.189650  0.428499  1
  O  O4  1  0.219841  0.333150  0.893940  1
  O  O5  1  0.081107  0.195250  0.331124  1
  O  O6  1  0.273158  0.536802  0.413283  1
  O  O7  1  0.226842  0.036802  0.913283  1
  O  O8  1  0.418893  0.695250  0.831124  1
  O  O9  1  0.280159  0.833150  0.393940  1
  O  O10  1  0.719841  0.333150  0.606060  1
  O  O11  1  0.581107  0.195250  0.168876  1
  O  O12  1  0.773158  0.536802  0.086717  1
  O  O13  1  0.726842  0.036802  0.586717  1
  O  O14  1  0.918893  0.695250  0.668876  1
  O  O15  1  0.780159  0.833150  0.106060  1
