# generated using pymatgen
data_Mn15CrO32
_symmetry_space_group_name_H-M   'P 1'
_cell_length_a   8.22793647
_cell_length_b   10.06833760
_cell_length_c   8.21919116
_cell_angle_alpha   65.95012817
_cell_angle_beta   89.99069103
_cell_angle_gamma   114.13674530
_symmetry_Int_Tables_number   1
_chemical_formula_structural   Mn15CrO32
_chemical_formula_sum   'Mn15 Cr1 O32'
_cell_volume   555.93914421
_cell_formula_units_Z   1
loop_
 _symmetry_equiv_pos_site_id
 _symmetry_equiv_pos_as_xyz
  1  'x, y, z'
loop_
 _atom_site_type_symbol
 _atom_site_label
 _atom_site_symmetry_multiplicity
 _atom_site_fract_x
 _atom_site_fract_y
 _atom_site_fract_z
 _atom_site_occupancy
  Mn  Mn0  1  0.749615  0.000465  0.251234  1
  Mn  Mn1  1  0.250606  0.998509  0.752919  1
  Mn  Mn2  1  0.501533  0.000643  0.001137  1
  Mn  Mn3  1  0.374635  0.249064  0.876587  1
  Mn  Mn4  1  0.876277  0.251248  0.376045  1
  Mn  Mn5  1  0.625203  0.251205  0.625041  1
  Mn  Mn6  1  0.125747  0.250628  0.125793  1
  Mn  Mn7  1  0.249249  0.499023  0.751313  1
  Mn  Mn8  1  0.000519  0.500961  0.500092  1
  Mn  Mn9  1  0.751428  0.500506  0.249307  1
  Mn  Mn10  1  0.499946  0.499606  0.000301  1
  Mn  Mn11  1  0.873924  0.748627  0.875293  1
  Mn  Mn12  1  0.375708  0.749594  0.376514  1
  Mn  Mn13  1  0.125094  0.748973  0.626194  1
  Mn  Mn14  1  0.625607  0.750057  0.125386  1
  Cr  Cr15  1  0.000456  -0.000076  0.501286  1
  O  O16  1  0.991816  0.016107  0.257502  1
  O  O17  1  0.771829  0.016537  0.477783  1
  O  O18  1  0.494564  0.015335  0.758197  1
  O  O19  1  0.272923  0.013555  0.981143  1
  O  O20  1  0.103250  0.236036  0.368354  1
  O  O21  1  0.883302  0.236884  0.147426  1
  O  O22  1  0.603896  0.236591  0.868160  1
  O  O23  1  0.381179  0.234158  0.648597  1
  O  O24  1  0.146292  0.263417  0.883644  1
  O  O25  1  0.367648  0.264144  0.104658  1
  O  O26  1  0.647944  0.265418  0.382176  1
  O  O27  1  0.867831  0.265820  0.604179  1
  O  O28  1  0.477424  0.484443  0.772186  1
  O  O29  1  0.980246  0.487003  0.271563  1
  O  O30  1  0.257505  0.485866  0.993474  1
  O  O31  1  0.758186  0.487276  0.491765  1
  O  O32  1  0.242572  0.513844  0.508506  1
  O  O33  1  0.742054  0.513141  0.007206  1
  O  O34  1  0.021133  0.513632  0.729310  1
  O  O35  1  0.522709  0.514322  0.228319  1
  O  O36  1  0.853825  0.735701  0.117047  1
  O  O37  1  0.353341  0.734696  0.619763  1
  O  O38  1  0.631857  0.735031  0.896552  1
  O  O39  1  0.133626  0.736063  0.397084  1
  O  O40  1  0.116748  0.762373  0.855054  1
  O  O41  1  0.897406  0.763359  0.633252  1
  O  O42  1  0.618354  0.764377  0.354142  1
  O  O43  1  0.397731  0.764662  0.133199  1
  O  O44  1  0.729105  0.985763  0.022888  1
  O  O45  1  0.008104  0.983189  0.745664  1
  O  O46  1  0.228304  0.983524  0.525626  1
  O  O47  1  0.506937  0.985299  0.244624  1
