# generated using pymatgen
data_Cr(SO4)2
_symmetry_space_group_name_H-M   'P 1'
_cell_length_a   8.89670412
_cell_length_b   8.89670408
_cell_length_c   8.89670358
_cell_angle_alpha   56.00400848
_cell_angle_beta   56.00400597
_cell_angle_gamma   56.00400618
_symmetry_Int_Tables_number   1
_chemical_formula_structural   Cr(SO4)2
_chemical_formula_sum   'Cr3 S6 O24'
_cell_volume   451.83903946
_cell_formula_units_Z   3
loop_
 _symmetry_equiv_pos_site_id
 _symmetry_equiv_pos_as_xyz
  1  'x, y, z'
loop_
 _atom_site_type_symbol
 _atom_site_label
 _atom_site_symmetry_multiplicity
 _atom_site_fract_x
 _atom_site_fract_y
 _atom_site_fract_z
 _atom_site_occupancy
  Cr  Cr0  1  0.355529  0.355529  0.355529  1
  Cr  Cr1  1  0.645076  0.645076  0.645076  1
  Cr  Cr2  1  0.849809  0.849809  0.849809  1
  S  S3  1  0.037775  0.745525  0.468804  1
  S  S4  1  0.468804  0.037775  0.745525  1
  S  S5  1  0.745525  0.468804  0.037775  1
  S  S6  1  0.253628  0.535896  0.959737  1
  S  S7  1  0.535896  0.959737  0.253628  1
  S  S8  1  0.959737  0.253628  0.535896  1
  O  O9  1  0.110846  0.295844  0.516400  1
  O  O10  1  0.295844  0.516400  0.110846  1
  O  O11  1  0.001372  0.945276  0.337775  1
  O  O12  1  0.516400  0.110846  0.295844  1
  O  O13  1  0.022395  0.713568  0.660804  1
  O  O14  1  0.232226  0.609518  0.390548  1
  O  O15  1  0.390548  0.232226  0.609518  1
  O  O16  1  0.337775  0.001372  0.945276  1
  O  O17  1  0.609518  0.390548  0.232226  1
  O  O18  1  0.051613  0.678259  0.978446  1
  O  O19  1  0.286802  0.351824  0.967542  1
  O  O20  1  0.351824  0.967542  0.286802  1
  O  O21  1  0.660804  0.022395  0.713568  1
  O  O22  1  0.713568  0.660804  0.022395  1
  O  O23  1  0.945276  0.337775  0.001372  1
  O  O24  1  0.387050  0.625926  0.761797  1
  O  O25  1  0.678259  0.978446  0.051613  1
  O  O26  1  0.625926  0.761797  0.387050  1
  O  O27  1  0.761797  0.387050  0.625926  1
  O  O28  1  0.967542  0.286802  0.351824  1
  O  O29  1  0.500954  0.893074  0.680721  1
  O  O30  1  0.978446  0.051613  0.678259  1
  O  O31  1  0.680721  0.500954  0.893074  1
  O  O32  1  0.893074  0.680721  0.500954  1
