# generated using pymatgen
data_Cr3Co5O16
_symmetry_space_group_name_H-M   'P 1'
_cell_length_a   5.72483115
_cell_length_b   5.76086288
_cell_length_c   8.61089593
_cell_angle_alpha   89.93924296
_cell_angle_beta   90.02961290
_cell_angle_gamma   120.06379953
_symmetry_Int_Tables_number   1
_chemical_formula_structural   Cr3Co5O16
_chemical_formula_sum   'Cr3 Co5 O16'
_cell_volume   245.78161092
_cell_formula_units_Z   1
loop_
 _symmetry_equiv_pos_site_id
 _symmetry_equiv_pos_as_xyz
  1  'x, y, z'
loop_
 _atom_site_type_symbol
 _atom_site_label
 _atom_site_symmetry_multiplicity
 _atom_site_fract_x
 _atom_site_fract_y
 _atom_site_fract_z
 _atom_site_occupancy
  Cr  Cr0  1  0.159183  0.831463  0.202330  1
  Cr  Cr1  1  0.158731  0.327635  0.202936  1
  Cr  Cr2  1  0.322918  0.161978  0.700771  1
  Co  Co3  1  0.341386  0.669484  0.487075  1
  Co  Co4  1  0.653780  0.826649  0.213334  1
  Co  Co5  1  0.670377  0.335433  0.981635  1
  Co  Co6  1  0.828637  0.660069  0.708042  1
  Co  Co7  1  0.827331  0.169264  0.711280  1
  O  O8  1  0.170314  0.832562  0.605287  1
  O  O9  1  0.056980  0.528882  0.343711  1
  O  O10  1  0.344596  0.672056  0.094516  1
  O  O11  1  0.982318  0.990820  0.317391  1
  O  O12  1  0.982611  0.994012  0.816226  1
  O  O13  1  0.170716  0.337579  0.603886  1
  O  O14  1  0.482170  0.955550  0.344640  1
  O  O15  1  0.482512  0.525508  0.344698  1
  O  O16  1  0.350133  0.175316  0.108747  1
  O  O17  1  0.663334  0.830536  0.603245  1
  O  O18  1  0.526226  0.478185  0.841462  1
  O  O19  1  0.525816  0.046617  0.842922  1
  O  O20  1  0.679001  0.337774  0.597970  1
  O  O21  1  0.831720  0.659657  0.102287  1
  O  O22  1  0.957681  0.480933  0.838767  1
  O  O23  1  0.831529  0.172239  0.102563  1
