# generated using pymatgen
data_Cr3(CoO6)2
_symmetry_space_group_name_H-M   'P 1'
_cell_length_a   12.58216737
_cell_length_b   9.03438803
_cell_length_c   8.94938933
_cell_angle_alpha   90.02025904
_cell_angle_beta   90.00973626
_cell_angle_gamma   90.00030079
_symmetry_Int_Tables_number   1
_chemical_formula_structural   Cr3(CoO6)2
_chemical_formula_sum   'Cr12 Co8 O48'
_cell_volume   1017.29653693
_cell_formula_units_Z   4
loop_
 _symmetry_equiv_pos_site_id
 _symmetry_equiv_pos_as_xyz
  1  'x, y, z'
loop_
 _atom_site_type_symbol
 _atom_site_label
 _atom_site_symmetry_multiplicity
 _atom_site_fract_x
 _atom_site_fract_y
 _atom_site_fract_z
 _atom_site_occupancy
  Cr  Cr0  1  -0.000065  0.469140  0.250038  1
  Cr  Cr1  1  0.000014  0.530905  0.750039  1
  Cr  Cr2  1  0.144117  0.102536  0.603767  1
  Cr  Cr3  1  0.144157  0.897516  0.103785  1
  Cr  Cr4  1  0.355849  0.397530  0.103786  1
  Cr  Cr5  1  0.355835  0.602504  0.603795  1
  Cr  Cr6  1  0.500019  0.030785  0.749988  1
  Cr  Cr7  1  0.500011  0.969144  0.249962  1
  Cr  Cr8  1  0.644137  0.397432  0.396215  1
  Cr  Cr9  1  0.644116  0.602540  0.896200  1
  Cr  Cr10  1  0.855888  0.102511  0.896150  1
  Cr  Cr11  1  0.855878  0.897470  0.396194  1
  Co  Co12  1  0.122873  0.249172  0.970783  1
  Co  Co13  1  0.122866  0.750849  0.470731  1
  Co  Co14  1  0.377181  0.250794  0.470699  1
  Co  Co15  1  0.377204  0.749182  0.970663  1
  Co  Co16  1  0.622875  0.250839  0.029301  1
  Co  Co17  1  0.622864  0.749112  0.529223  1
  Co  Co18  1  0.877169  0.249132  0.529386  1
  Co  Co19  1  0.877149  0.750842  0.029364  1
  O  O20  1  0.023285  0.155216  0.559163  1
  O  O21  1  0.023342  0.844807  0.059141  1
  O  O22  1  0.071534  0.577830  0.363177  1
  O  O23  1  0.071523  0.422181  0.863160  1
  O  O24  1  0.082954  0.362905  0.155161  1
  O  O25  1  0.083029  0.637101  0.655173  1
  O  O26  1  0.156139  0.084424  0.088753  1
  O  O27  1  0.156107  0.915618  0.588778  1
  O  O28  1  0.171060  0.151532  0.777468  1
  O  O29  1  0.171111  0.848510  0.277435  1
  O  O30  1  0.229238  0.177209  0.483553  1
  O  O31  1  0.229283  0.822742  0.983540  1
  O  O32  1  0.270685  0.322804  0.983551  1
  O  O33  1  0.270714  0.677220  0.483592  1
  O  O34  1  0.328934  0.651502  0.777529  1
  O  O35  1  0.328908  0.348556  0.277441  1
  O  O36  1  0.343917  0.415584  0.588819  1
  O  O37  1  0.343894  0.584445  0.088855  1
  O  O38  1  0.416983  0.137023  0.655191  1
  O  O39  1  0.416971  0.862876  0.155109  1
  O  O40  1  0.428411  0.077783  0.363123  1
  O  O41  1  0.428439  0.922203  0.863142  1
  O  O42  1  0.476647  0.655141  0.559230  1
  O  O43  1  0.476684  0.344868  0.059162  1
  O  O44  1  0.523296  0.344794  0.440832  1
  O  O45  1  0.523269  0.655188  0.940838  1
  O  O46  1  0.571544  0.077803  0.136795  1
  O  O47  1  0.571560  0.922097  0.636805  1
  O  O48  1  0.583019  0.137060  0.844833  1
  O  O49  1  0.582993  0.862942  0.344784  1
  O  O50  1  0.656072  0.415596  0.911230  1
  O  O51  1  0.656088  0.584356  0.411317  1
  O  O52  1  0.671104  0.348494  0.222535  1
  O  O53  1  0.671085  0.651491  0.722608  1
  O  O54  1  0.729264  0.322784  0.516411  1
  O  O55  1  0.729247  0.677275  0.016432  1
  O  O56  1  0.770768  0.177180  0.016386  1
  O  O57  1  0.770777  0.822881  0.516379  1
  O  O58  1  0.828941  0.151464  0.722520  1
  O  O59  1  0.828950  0.848507  0.222481  1
  O  O60  1  0.843912  0.084443  0.411241  1
  O  O61  1  0.843928  0.915565  0.911189  1
  O  O62  1  0.916966  0.362946  0.344871  1
  O  O63  1  0.916997  0.637101  0.844894  1
  O  O64  1  0.928429  0.422195  0.636851  1
  O  O65  1  0.928412  0.577839  0.136829  1
  O  O66  1  0.976738  0.155181  0.940808  1
  O  O67  1  0.976710  0.844800  0.440819  1
