# generated using pymatgen
data_Li8Mn7Co(PO4)12
_symmetry_space_group_name_H-M   'P 1'
_cell_length_a   8.54058077
_cell_length_b   8.77337453
_cell_length_c   11.92066395
_cell_angle_alpha   89.81050963
_cell_angle_beta   89.86069368
_cell_angle_gamma   89.46250844
_symmetry_Int_Tables_number   1
_chemical_formula_structural   Li8Mn7Co(PO4)12
_chemical_formula_sum   'Li8 Mn7 Co1 P12 O48'
_cell_volume   893.16517770
_cell_formula_units_Z   1
loop_
 _symmetry_equiv_pos_site_id
 _symmetry_equiv_pos_as_xyz
  1  'x, y, z'
loop_
 _atom_site_type_symbol
 _atom_site_label
 _atom_site_symmetry_multiplicity
 _atom_site_fract_x
 _atom_site_fract_y
 _atom_site_fract_z
 _atom_site_occupancy
  Li  Li0  1  0.215561  0.721658  0.181394  1
  Li  Li1  1  0.214860  0.776336  0.818903  1
  Li  Li2  1  0.286013  0.223050  0.318613  1
  Li  Li3  1  0.284871  0.279704  0.681199  1
  Li  Li4  1  0.716237  0.720704  0.320361  1
  Li  Li5  1  0.715288  0.775117  0.681353  1
  Li  Li6  1  0.784509  0.223466  0.181495  1
  Li  Li7  1  0.784153  0.279225  0.816622  1
  Mn  Mn8  1  0.246251  0.962315  0.612898  1
  Mn  Mn9  1  0.249741  0.534316  0.385556  1
  Mn  Mn10  1  0.251607  0.036376  0.113430  1
  Mn  Mn11  1  0.249951  0.465098  0.885382  1
  Mn  Mn12  1  0.748423  0.535686  0.114908  1
  Mn  Mn13  1  0.747804  0.964035  0.886794  1
  Mn  Mn14  1  0.752098  0.036564  0.385766  1
  Co  Co15  1  0.752345  0.464997  0.615527  1
  P  P16  1  0.033467  0.248966  0.501587  1
  P  P17  1  0.105303  0.394376  0.146746  1
  P  P18  1  0.105360  0.105102  0.851588  1
  P  P19  1  0.396289  0.606068  0.644895  1
  P  P20  1  0.394154  0.893436  0.352432  1
  P  P21  1  0.464884  0.751978  0.999516  1
  P  P22  1  0.535401  0.248701  0.999759  1
  P  P23  1  0.607117  0.395819  0.355907  1
  P  P24  1  0.605966  0.108366  0.645845  1
  P  P25  1  0.893123  0.605781  0.853364  1
  P  P26  1  0.894123  0.894301  0.147684  1
  P  P27  1  0.964291  0.746388  0.501414  1
  O  O28  1  0.059304  0.642079  0.424578  1
  O  O29  1  0.057689  0.856008  0.576713  1
  O  O30  1  0.075354  0.897172  0.157987  1
  O  O31  1  0.074213  0.605691  0.842765  1
  O  O32  1  0.143365  0.158156  0.584719  1
  O  O33  1  0.143709  0.332158  0.419752  1
  O  O34  1  0.155034  0.438508  0.028609  1
  O  O35  1  0.154694  0.059736  0.971028  1
  O  O36  1  0.159750  0.231025  0.179910  1
  O  O37  1  0.157172  0.264094  0.817622  1
  O  O38  1  0.177798  0.514407  0.226584  1
  O  O39  1  0.178748  0.981222  0.772926  1
  O  O40  1  0.320775  0.017038  0.273753  1
  O  O41  1  0.321028  0.487993  0.725646  1
  O  O42  1  0.340698  0.770252  0.677409  1
  O  O43  1  0.341520  0.734260  0.319305  1
  O  O44  1  0.345047  0.562336  0.527348  1
  O  O45  1  0.345526  0.939005  0.472260  1
  O  O46  1  0.357173  0.839818  0.084671  1
  O  O47  1  0.358608  0.669284  0.917083  1
  O  O48  1  0.423994  0.103464  0.656946  1
  O  O49  1  0.425801  0.396338  0.342326  1
  O  O50  1  0.441747  0.140663  0.076145  1
  O  O51  1  0.441862  0.356470  0.924236  1
  O  O52  1  0.557427  0.643971  0.075458  1
  O  O53  1  0.559242  0.860262  0.923512  1
  O  O54  1  0.576817  0.604217  0.656727  1
  O  O55  1  0.574931  0.895873  0.342112  1
  O  O56  1  0.642906  0.332575  0.081198  1
  O  O57  1  0.644607  0.159924  0.915682  1
  O  O58  1  0.654741  0.060347  0.527344  1
  O  O59  1  0.656350  0.441442  0.472631  1
  O  O60  1  0.659182  0.232391  0.320855  1
  O  O61  1  0.658029  0.270354  0.677524  1
  O  O62  1  0.677655  0.515095  0.273169  1
  O  O63  1  0.678738  0.985823  0.726158  1
  O  O64  1  0.821221  0.017425  0.226823  1
  O  O65  1  0.820999  0.486110  0.773353  1
  O  O66  1  0.842562  0.735051  0.181549  1
  O  O67  1  0.839318  0.770285  0.820986  1
  O  O68  1  0.845068  0.562781  0.972285  1
  O  O69  1  0.845262  0.939792  0.028173  1
  O  O70  1  0.855393  0.659343  0.583043  1
  O  O71  1  0.856484  0.837117  0.418764  1
  O  O72  1  0.924021  0.102239  0.841172  1
  O  O73  1  0.924968  0.395230  0.158899  1
  O  O74  1  0.943451  0.140689  0.424088  1
  O  O75  1  0.940832  0.356552  0.577236  1
