# generated using pymatgen
data_Mn(CoO2)4
_symmetry_space_group_name_H-M   'P 1'
_cell_length_a   5.75932267
_cell_length_b   5.75276151
_cell_length_c   5.82139303
_cell_angle_alpha   90.97521268
_cell_angle_beta   62.16330037
_cell_angle_gamma   59.96138019
_symmetry_Int_Tables_number   1
_chemical_formula_structural   Mn(CoO2)4
_chemical_formula_sum   'Mn1 Co4 O8'
_cell_volume   139.50095441
_cell_formula_units_Z   1
loop_
 _symmetry_equiv_pos_site_id
 _symmetry_equiv_pos_as_xyz
  1  'x, y, z'
loop_
 _atom_site_type_symbol
 _atom_site_label
 _atom_site_symmetry_multiplicity
 _atom_site_fract_x
 _atom_site_fract_y
 _atom_site_fract_z
 _atom_site_occupancy
  Mn  Mn0  1  0.500091  0.499931  -0.000057  1
  Co  Co1  1  0.000000  0.500018  0.499972  1
  Co  Co2  1  -0.000080  0.999991  0.000079  1
  Co  Co3  1  0.499944  0.000113  0.000028  1
  Co  Co4  1  0.000053  0.499985  0.000022  1
  O  O5  1  0.461041  0.260031  0.803890  1
  O  O6  1  0.961332  0.282157  0.785200  1
  O  O7  1  0.484863  0.757893  0.789921  1
  O  O8  1  0.956688  0.751381  0.788936  1
  O  O9  1  0.043200  0.248618  0.211121  1
  O  O10  1  0.515106  0.242161  0.210009  1
  O  O11  1  0.038849  0.717739  0.214702  1
  O  O12  1  0.538913  0.739982  0.196177  1
