# generated using pymatgen
data_Mn3CoO8
_symmetry_space_group_name_H-M   'P 1'
_cell_length_a   5.76862210
_cell_length_b   5.76871362
_cell_length_c   8.64031601
_cell_angle_alpha   90.00217001
_cell_angle_beta   89.99893092
_cell_angle_gamma   120.00050152
_symmetry_Int_Tables_number   1
_chemical_formula_structural   Mn3CoO8
_chemical_formula_sum   'Mn6 Co2 O16'
_cell_volume   249.00561036
_cell_formula_units_Z   2
loop_
 _symmetry_equiv_pos_site_id
 _symmetry_equiv_pos_as_xyz
  1  'x, y, z'
loop_
 _atom_site_type_symbol
 _atom_site_label
 _atom_site_symmetry_multiplicity
 _atom_site_fract_x
 _atom_site_fract_y
 _atom_site_fract_z
 _atom_site_occupancy
  Mn  Mn0  1  0.167852  0.832160  0.209369  1
  Mn  Mn1  1  0.167852  0.335725  0.209367  1
  Mn  Mn2  1  0.664293  0.832164  0.209376  1
  Mn  Mn3  1  0.335705  0.167871  0.709375  1
  Mn  Mn4  1  0.832147  0.664306  0.709370  1
  Mn  Mn5  1  0.832147  0.167874  0.709368  1
  Co  Co6  1  0.333339  0.666668  0.486866  1
  Co  Co7  1  0.666662  0.333329  0.986866  1
  O  O8  1  0.170151  0.829825  0.599321  1
  O  O9  1  0.046149  0.523085  0.343455  1
  O  O10  1  0.333338  0.666672  0.098386  1
  O  O11  1  0.000014  0.000022  0.316162  1
  O  O12  1  0.999987  0.000008  0.816162  1
  O  O13  1  0.170165  0.340342  0.599322  1
  O  O14  1  0.476953  0.953881  0.343460  1
  O  O15  1  0.476950  0.523089  0.343447  1
  O  O16  1  0.340343  0.170168  0.099328  1
  O  O17  1  0.659657  0.829824  0.599328  1
  O  O18  1  0.523047  0.476929  0.843460  1
  O  O19  1  0.523050  0.046139  0.843448  1
  O  O20  1  0.666662  0.333333  0.598386  1
  O  O21  1  0.829850  0.659674  0.099321  1
  O  O22  1  0.953853  0.476937  0.843455  1
  O  O23  1  0.829835  0.170177  0.099322  1
