# generated using pymatgen
data_Li3Mn7O16
_symmetry_space_group_name_H-M   'P 1'
_cell_length_a   5.83018560
_cell_length_b   5.83018560
_cell_length_c   10.04642983
_cell_angle_alpha   90.00000000
_cell_angle_beta   73.13234129
_cell_angle_gamma   120.00000000
_symmetry_Int_Tables_number   1
_chemical_formula_structural   Li3Mn7O16
_chemical_formula_sum   'Li3 Mn7 O16'
_cell_volume   278.64442625
_cell_formula_units_Z   1
loop_
 _symmetry_equiv_pos_site_id
 _symmetry_equiv_pos_as_xyz
  1  'x, y, z'
loop_
 _atom_site_type_symbol
 _atom_site_label
 _atom_site_symmetry_multiplicity
 _atom_site_fract_x
 _atom_site_fract_y
 _atom_site_fract_z
 _atom_site_occupancy
  Li  Li0  1  0.877902  0.188951  0.433147  1
  Li  Li1  1  0.121542  0.310771  0.067688  1
  Li  Li2  1  0.879339  0.689669  0.930993  1
  Mn  Mn3  1  0.500015  0.244935  0.244905  1
  Mn  Mn4  1  0.497984  0.498992  0.503024  1
  Mn  Mn5  1  0.500015  0.755080  0.244905  1
  Mn  Mn6  1  0.499028  0.245967  0.755006  1
  Mn  Mn7  1  0.010160  0.755080  0.244905  1
  Mn  Mn8  1  0.499028  0.753061  0.755006  1
  Mn  Mn9  1  0.991933  0.245967  0.755006  1
  O  O10  1  0.718043  0.109022  0.147108  1
  O  O11  1  0.243870  0.109022  0.147108  1
  O  O12  1  0.739347  0.619673  0.140980  1
  O  O13  1  0.736534  0.118267  0.645199  1
  O  O14  1  0.735427  0.396592  0.367982  1
  O  O15  1  0.735427  0.838834  0.367982  1
  O  O16  1  0.293183  0.396592  0.367982  1
  O  O17  1  0.755780  0.364361  0.852799  1
  O  O18  1  0.265441  0.164562  0.633679  1
  O  O19  1  0.701759  0.600880  0.633679  1
  O  O20  1  0.243870  0.634848  0.147108  1
  O  O21  1  0.265441  0.600880  0.633679  1
  O  O22  1  0.259942  0.379972  0.860086  1
  O  O23  1  0.265369  0.882684  0.351948  1
  O  O24  1  0.755780  0.891420  0.852799  1
  O  O25  1  0.282840  0.891420  0.852799  1
