# generated using pymatgen
data_Ti(CoO3)2
_symmetry_space_group_name_H-M   'P 1'
_cell_length_a   6.46188513
_cell_length_b   2.92025760
_cell_length_c   5.76051464
_cell_angle_alpha   90.15625298
_cell_angle_beta   103.57117844
_cell_angle_gamma   76.90391690
_symmetry_Int_Tables_number   1
_chemical_formula_structural   Ti(CoO3)2
_chemical_formula_sum   'Ti1 Co2 O6'
_cell_volume   102.77352386
_cell_formula_units_Z   1
loop_
 _symmetry_equiv_pos_site_id
 _symmetry_equiv_pos_as_xyz
  1  'x, y, z'
loop_
 _atom_site_type_symbol
 _atom_site_label
 _atom_site_symmetry_multiplicity
 _atom_site_fract_x
 _atom_site_fract_y
 _atom_site_fract_z
 _atom_site_occupancy
  Ti  Ti0  1  0.333626  0.336524  0.333964  1
  Co  Co1  1  0.994713  0.997775  0.000284  1
  Co  Co2  1  0.670544  0.659164  0.670265  1
  O  O3  1  0.010419  0.489939  0.217230  1
  O  O4  1  0.361652  0.816414  0.566430  1
  O  O5  1  0.689718  0.150718  0.888173  1
  O  O6  1  0.303872  0.843911  0.101705  1
  O  O7  1  0.655820  0.167120  0.453316  1
  O  O8  1  0.975130  0.506063  0.782219  1
