# generated using pymatgen
data_Mn5Cr3O16
_symmetry_space_group_name_H-M   'P 1'
_cell_length_a   5.83421933
_cell_length_b   5.84465849
_cell_length_c   19.35827500
_cell_angle_alpha   98.67147574
_cell_angle_beta   89.92466438
_cell_angle_gamma   119.98734046
_symmetry_Int_Tables_number   1
_chemical_formula_structural   Mn5Cr3O16
_chemical_formula_sum   'Mn10 Cr6 O32'
_cell_volume   563.08216534
_cell_formula_units_Z   2
loop_
 _symmetry_equiv_pos_site_id
 _symmetry_equiv_pos_as_xyz
  1  'x, y, z'
loop_
 _atom_site_type_symbol
 _atom_site_label
 _atom_site_symmetry_multiplicity
 _atom_site_fract_x
 _atom_site_fract_y
 _atom_site_fract_z
 _atom_site_occupancy
  Mn  Mn0  1  0.124967  0.749948  0.375011  1
  Mn  Mn1  1  0.374907  0.249907  0.124952  1
  Mn  Mn2  1  0.500085  0.000193  0.000013  1
  Mn  Mn3  1  0.249934  0.500174  0.249748  1
  Mn  Mn4  1  0.875065  0.250027  0.124973  1
  Mn  Mn5  1  -0.000057  0.999596  0.500256  1
  Mn  Mn6  1  0.374206  0.248953  0.624918  1
  Mn  Mn7  1  0.125803  0.751131  0.875081  1
  Mn  Mn8  1  0.874817  0.249045  0.624943  1
  Mn  Mn9  1  0.625254  0.751114  0.875081  1
  Cr  Cr10  1  0.374927  0.750177  0.124931  1
  Cr  Cr11  1  0.625003  0.749898  0.375013  1
  Cr  Cr12  1  0.125013  0.250020  0.375054  1
  Cr  Cr13  1  0.874960  0.749603  0.624818  1
  Cr  Cr14  1  0.749947  0.499925  0.750007  1
  Cr  Cr15  1  0.625202  0.250293  0.875243  1
  O  O16  1  0.229507  0.899123  0.066186  1
  O  O17  1  0.669503  0.899280  0.066080  1
  O  O18  1  0.191139  0.381805  0.073909  1
  O  O19  1  0.080069  0.600684  0.183669  1
  O  O20  1  0.520386  0.600915  0.183672  1
  O  O21  1  0.080853  0.162558  0.183620  1
  O  O22  1  0.668679  0.337003  0.066202  1
  O  O23  1  0.416271  0.835480  0.315707  1
  O  O24  1  0.169218  0.898470  0.566298  1
  O  O25  1  0.417168  0.398091  0.315856  1
  O  O26  1  0.558894  0.118231  0.176041  1
  O  O27  1  0.308478  0.618437  0.425836  1
  O  O28  1  0.941501  0.881558  0.324232  1
  O  O29  1  0.833664  0.664312  0.434284  1
  O  O30  1  0.019451  0.599220  0.683439  1
  O  O31  1  0.270343  0.100376  0.433792  1
  O  O32  1  0.979644  0.399461  0.316275  1
  O  O33  1  0.729491  0.898347  0.566283  1
  O  O34  1  0.168958  0.337052  0.566166  1
  O  O35  1  0.059003  0.118532  0.676202  1
  O  O36  1  0.579944  0.599206  0.683527  1
  O  O37  1  0.690986  0.381484  0.574067  1
  O  O38  1  0.441161  0.881837  0.823833  1
  O  O39  1  0.832713  0.101738  0.434209  1
  O  O40  1  0.331430  0.663383  0.933949  1
  O  O41  1  0.580271  0.160943  0.682832  1
  O  O42  1  0.480546  0.400798  0.816549  1
  O  O43  1  0.919836  0.839231  0.817210  1
  O  O44  1  0.808870  0.618217  0.925868  1
  O  O45  1  0.920308  0.400984  0.816456  1
  O  O46  1  0.331205  0.101520  0.933900  1
  O  O47  1  0.770475  0.101720  0.933804  1
