# generated using pymatgen
data_Ba8Nb7O24
_symmetry_space_group_name_H-M   'P 1'
_cell_length_a   5.93496147
_cell_length_b   5.93495626
_cell_length_c   19.23357270
_cell_angle_alpha   90.00067153
_cell_angle_beta   90.00005440
_cell_angle_gamma   119.99796496
_symmetry_Int_Tables_number   1
_chemical_formula_structural   Ba8Nb7O24
_chemical_formula_sum   'Ba8 Nb7 O24'
_cell_volume   586.72545038
_cell_formula_units_Z   1
loop_
 _symmetry_equiv_pos_site_id
 _symmetry_equiv_pos_as_xyz
  1  'x, y, z'
loop_
 _atom_site_type_symbol
 _atom_site_label
 _atom_site_symmetry_multiplicity
 _atom_site_fract_x
 _atom_site_fract_y
 _atom_site_fract_z
 _atom_site_occupancy
  Ba  Ba0  1  0.333349  0.666688  0.132209  1
  Ba  Ba1  1  0.333334  0.666673  0.755254  1
  Ba  Ba2  1  0.999985  0.999990  0.985641  1
  Ba  Ba3  1  0.333354  0.666703  0.365982  1
  Ba  Ba4  1  0.999986  0.999977  0.504312  1
  Ba  Ba5  1  0.666794  0.333590  0.249152  1
  Ba  Ba6  1  0.666646  0.333346  0.854575  1
  Ba  Ba7  1  0.666654  0.333314  0.632481  1
  Nb  Nb8  1  0.333312  0.666668  0.563397  1
  Nb  Nb9  1  0.000028  0.000050  0.182706  1
  Nb  Nb10  1  0.000031  0.000022  0.318165  1
  Nb  Nb11  1  0.999985  0.999998  0.697347  1
  Nb  Nb12  1  0.333323  0.666650  0.933661  1
  Nb  Nb13  1  0.666671  0.333332  0.059469  1
  Nb  Nb14  1  0.666665  0.333333  0.438923  1
  O  O15  1  0.161196  0.838855  0.250413  1
  O  O16  1  0.995100  0.497529  0.007601  1
  O  O17  1  0.001331  0.500662  0.498809  1
  O  O18  1  0.170004  0.830014  0.620536  1
  O  O19  1  0.176468  0.823509  0.883268  1
  O  O20  1  0.169979  0.339996  0.620543  1
  O  O21  1  0.176478  0.352923  0.883269  1
  O  O22  1  0.161204  0.322402  0.250418  1
  O  O23  1  0.327166  0.163624  0.741279  1
  O  O24  1  0.660000  0.830000  0.620541  1
  O  O25  1  0.647060  0.823516  0.883272  1
  O  O26  1  0.502456  0.497526  0.007603  1
  O  O27  1  0.499327  0.500659  0.498812  1
  O  O28  1  0.339629  0.169823  0.126972  1
  O  O29  1  0.338593  0.169294  0.376866  1
  O  O30  1  0.677670  0.838758  0.250415  1
  O  O31  1  0.830707  0.661420  0.376862  1
  O  O32  1  0.502449  0.004886  0.007607  1
  O  O33  1  0.499337  0.998663  0.498809  1
  O  O34  1  0.830224  0.660413  0.126966  1
  O  O35  1  0.836423  0.672815  0.741277  1
  O  O36  1  0.830205  0.169815  0.126976  1
  O  O37  1  0.830707  0.169312  0.376859  1
  O  O38  1  0.836370  0.163555  0.741282  1
