# generated using pymatgen
data_TiMn3O8
_symmetry_space_group_name_H-M   'P 1'
_cell_length_a   8.27541627
_cell_length_b   8.27561883
_cell_length_c   8.27549128
_cell_angle_alpha   89.99953073
_cell_angle_beta   89.99897469
_cell_angle_gamma   90.00028525
_symmetry_Int_Tables_number   1
_chemical_formula_structural   TiMn3O8
_chemical_formula_sum   'Ti4 Mn12 O32'
_cell_volume   566.74032298
_cell_formula_units_Z   4
loop_
 _symmetry_equiv_pos_site_id
 _symmetry_equiv_pos_as_xyz
  1  'x, y, z'
loop_
 _atom_site_type_symbol
 _atom_site_label
 _atom_site_symmetry_multiplicity
 _atom_site_fract_x
 _atom_site_fract_y
 _atom_site_fract_z
 _atom_site_occupancy
  Ti  Ti0  1  0.124831  0.875038  0.375006  1
  Ti  Ti1  1  0.375126  0.124903  0.875049  1
  Ti  Ti2  1  0.624920  0.624927  0.624899  1
  Ti  Ti3  1  0.875133  0.375026  0.124901  1
  Mn  Mn4  1  0.122172  0.127803  0.625068  1
  Mn  Mn5  1  0.125093  0.377816  0.872177  1
  Mn  Mn6  1  0.127812  0.625073  0.122158  1
  Mn  Mn7  1  0.372185  0.374935  0.622178  1
  Mn  Mn8  1  0.374916  0.622195  0.372201  1
  Mn  Mn9  1  0.377845  0.872194  0.125099  1
  Mn  Mn10  1  0.622174  0.372194  0.374922  1
  Mn  Mn11  1  0.625068  0.122189  0.127826  1
  Mn  Mn12  1  0.627817  0.874916  0.877835  1
  Mn  Mn13  1  0.872190  0.125093  0.377838  1
  Mn  Mn14  1  0.874926  0.877835  0.627829  1
  Mn  Mn15  1  0.877815  0.627810  0.874940  1
  O  O16  1  0.105959  0.114159  0.390899  1
  O  O17  1  0.109094  0.894046  0.614148  1
  O  O18  1  0.111620  0.611626  0.888381  1
  O  O19  1  0.135929  0.144054  0.859189  1
  O  O20  1  0.114182  0.390907  0.105978  1
  O  O21  1  0.138402  0.361602  0.638417  1
  O  O22  1  0.140803  0.635919  0.355960  1
  O  O23  1  0.144042  0.859191  0.135904  1
  O  O24  1  0.355956  0.140828  0.635914  1
  O  O25  1  0.359185  0.364084  0.855960  1
  O  O26  1  0.361596  0.638420  0.138423  1
  O  O27  1  0.385838  0.609111  0.605983  1
  O  O28  1  0.364063  0.855957  0.359189  1
  O  O29  1  0.388374  0.388393  0.388389  1
  O  O30  1  0.390906  0.105969  0.114169  1
  O  O31  1  0.394037  0.885843  0.890910  1
  O  O32  1  0.605968  0.385851  0.609111  1
  O  O33  1  0.609103  0.605982  0.385840  1
  O  O34  1  0.611630  0.888383  0.111640  1
  O  O35  1  0.635926  0.355957  0.140827  1
  O  O36  1  0.614173  0.109107  0.894039  1
  O  O37  1  0.638401  0.138420  0.361602  1
  O  O38  1  0.640812  0.864087  0.644063  1
  O  O39  1  0.644038  0.640828  0.864092  1
  O  O40  1  0.855958  0.359183  0.364087  1
  O  O41  1  0.859196  0.135916  0.144050  1
  O  O42  1  0.861595  0.861597  0.861604  1
  O  O43  1  0.885815  0.890899  0.394034  1
  O  O44  1  0.864085  0.644061  0.640826  1
  O  O45  1  0.888366  0.111630  0.611628  1
  O  O46  1  0.890891  0.394031  0.885848  1
  O  O47  1  0.894036  0.614150  0.109111  1
