# generated using pymatgen
data_Li3MnF6
_symmetry_space_group_name_H-M   'P 1'
_cell_length_a   4.94242032
_cell_length_b   5.00490824
_cell_length_c   4.98610123
_cell_angle_alpha   90.80165883
_cell_angle_beta   88.37625889
_cell_angle_gamma   119.58784776
_symmetry_Int_Tables_number   1
_chemical_formula_structural   Li3MnF6
_chemical_formula_sum   'Li3 Mn1 F6'
_cell_volume   107.21161385
_cell_formula_units_Z   1
loop_
 _symmetry_equiv_pos_site_id
 _symmetry_equiv_pos_as_xyz
  1  'x, y, z'
loop_
 _atom_site_type_symbol
 _atom_site_label
 _atom_site_symmetry_multiplicity
 _atom_site_fract_x
 _atom_site_fract_y
 _atom_site_fract_z
 _atom_site_occupancy
  Li  Li0  1  0.320989  0.641999  0.500025  1
  Li  Li1  1  -0.000032  1.000000  0.500082  1
  Li  Li2  1  0.678991  0.358001  0.500025  1
  Mn  Mn3  1  -0.000255  0.000000  -0.000301  1
  F  F4  1  0.011997  0.695725  0.725681  1
  F  F5  1  0.988010  0.304283  0.274320  1
  F  F6  1  0.316273  0.304275  0.725681  1
  F  F7  1  0.292319  0.000000  0.230211  1
  F  F8  1  0.683726  0.695717  0.274320  1
  F  F9  1  0.707882  1.000000  0.769957  1
