# generated using pymatgen
data_MoO3
_symmetry_space_group_name_H-M   'P 1'
_cell_length_a   7.28723866
_cell_length_b   5.47523053
_cell_length_c   5.65551092
_cell_angle_alpha   90.00000000
_cell_angle_beta   90.59289387
_cell_angle_gamma   90.00000000
_symmetry_Int_Tables_number   1
_chemical_formula_structural   MoO3
_chemical_formula_sum   'Mo4 O12'
_cell_volume   225.63891124
_cell_formula_units_Z   4
loop_
 _symmetry_equiv_pos_site_id
 _symmetry_equiv_pos_as_xyz
  1  'x, y, z'
loop_
 _atom_site_type_symbol
 _atom_site_label
 _atom_site_symmetry_multiplicity
 _atom_site_fract_x
 _atom_site_fract_y
 _atom_site_fract_z
 _atom_site_occupancy
  Mo  Mo0  1  0.501524  0.495304  0.697235  1
  Mo  Mo1  1  0.501524  0.004696  0.197235  1
  Mo  Mo2  1  0.001267  0.998559  0.041115  1
  Mo  Mo3  1  0.001267  0.501441  0.541115  1
  O  O4  1  0.460044  0.232141  0.870224  1
  O  O5  1  0.460044  0.267859  0.370223  1
  O  O6  1  0.045700  0.234027  0.835467  1
  O  O7  1  0.045700  0.265973  0.335467  1
  O  O8  1  0.752406  0.076291  0.111104  1
  O  O9  1  0.752406  0.423709  0.611104  1
  O  O10  1  0.545897  0.784911  0.418950  1
  O  O11  1  0.545897  0.715089  0.918950  1
  O  O12  1  0.253211  0.921394  0.124490  1
  O  O13  1  0.253211  0.578606  0.624490  1
  O  O14  1  0.960750  0.748185  0.850216  1
  O  O15  1  0.960750  0.751815  0.350216  1
