# generated using pymatgen
data_Cr3(NiO6)2
_symmetry_space_group_name_H-M   'P 1'
_cell_length_a   8.68092390
_cell_length_b   12.31392675
_cell_length_c   9.03662110
_cell_angle_alpha   90.00000000
_cell_angle_beta   90.00000000
_cell_angle_gamma   90.89589712
_symmetry_Int_Tables_number   1
_chemical_formula_structural   Cr3(NiO6)2
_chemical_formula_sum   'Cr12 Ni8 O48'
_cell_volume   965.86292082
_cell_formula_units_Z   4
loop_
 _symmetry_equiv_pos_site_id
 _symmetry_equiv_pos_as_xyz
  1  'x, y, z'
loop_
 _atom_site_type_symbol
 _atom_site_label
 _atom_site_symmetry_multiplicity
 _atom_site_fract_x
 _atom_site_fract_y
 _atom_site_fract_z
 _atom_site_occupancy
  Cr  Cr0  1  0.034915  0.489376  0.253933  1
  Cr  Cr1  1  0.108670  0.848382  0.378457  1
  Cr  Cr2  1  0.108484  0.141102  0.111569  1
  Cr  Cr3  1  0.391330  0.651618  0.878457  1
  Cr  Cr4  1  0.391516  0.358898  0.611569  1
  Cr  Cr5  1  0.465085  0.010624  0.753933  1
  Cr  Cr6  1  0.534914  0.989376  0.246067  1
  Cr  Cr7  1  0.608484  0.641102  0.388431  1
  Cr  Cr8  1  0.608670  0.348382  0.121543  1
  Cr  Cr9  1  0.891516  0.858898  0.888431  1
  Cr  Cr10  1  0.891330  0.151618  0.621543  1
  Cr  Cr11  1  0.965086  0.510624  0.746067  1
  Ni  Ni12  1  0.253161  0.885881  0.028378  1
  Ni  Ni13  1  0.246839  0.614119  0.528378  1
  Ni  Ni14  1  0.252578  0.381262  0.970660  1
  Ni  Ni15  1  0.247422  0.118738  0.470660  1
  Ni  Ni16  1  0.752578  0.881262  0.529340  1
  Ni  Ni17  1  0.747422  0.618738  0.029340  1
  Ni  Ni18  1  0.753161  0.385881  0.471622  1
  Ni  Ni19  1  0.746839  0.114119  0.971622  1
  O  O20  1  0.070252  0.449354  0.870821  1
  O  O21  1  0.076724  0.901111  0.885628  1
  O  O22  1  0.067818  0.612539  0.663717  1
  O  O23  1  0.068492  0.189629  0.576638  1
  O  O24  1  0.093464  0.585799  0.372573  1
  O  O25  1  0.120110  0.839585  0.191641  1
  O  O26  1  0.139028  0.975286  0.430197  1
  O  O27  1  0.128220  0.243251  0.994744  1
  O  O28  1  0.158455  0.179142  0.280015  1
  O  O29  1  0.184548  0.432147  0.174719  1
  O  O30  1  0.236310  0.771055  0.467129  1
  O  O31  1  0.263690  0.728945  0.967129  1
  O  O32  1  0.229309  0.042408  0.058982  1
  O  O33  1  0.270691  0.457592  0.558982  1
  O  O34  1  0.315452  0.067853  0.674719  1
  O  O35  1  0.341545  0.320858  0.780015  1
  O  O36  1  0.360972  0.524714  0.930197  1
  O  O37  1  0.371780  0.256749  0.494744  1
  O  O38  1  0.379890  0.660415  0.691641  1
  O  O39  1  0.406536  0.914201  0.872573  1
  O  O40  1  0.432182  0.887461  0.163717  1
  O  O41  1  0.423276  0.598889  0.385628  1
  O  O42  1  0.431508  0.310371  0.076638  1
  O  O43  1  0.429748  0.050646  0.370821  1
  O  O44  1  0.570252  0.949354  0.629179  1
  O  O45  1  0.568492  0.689629  0.923362  1
  O  O46  1  0.576723  0.401111  0.614372  1
  O  O47  1  0.567818  0.112539  0.836283  1
  O  O48  1  0.593464  0.085799  0.127427  1
  O  O49  1  0.620110  0.339585  0.308359  1
  O  O50  1  0.628220  0.743251  0.505256  1
  O  O51  1  0.639028  0.475286  0.069803  1
  O  O52  1  0.658455  0.679142  0.219985  1
  O  O53  1  0.684548  0.932147  0.325281  1
  O  O54  1  0.729309  0.542408  0.441018  1
  O  O55  1  0.770691  0.957592  0.941018  1
  O  O56  1  0.736310  0.271055  0.032871  1
  O  O57  1  0.763690  0.228945  0.532871  1
  O  O58  1  0.815452  0.567853  0.825281  1
  O  O59  1  0.841545  0.820858  0.719985  1
  O  O60  1  0.871780  0.756749  0.005256  1
  O  O61  1  0.860972  0.024714  0.569803  1
  O  O62  1  0.879890  0.160415  0.808359  1
  O  O63  1  0.906536  0.414201  0.627427  1
  O  O64  1  0.931508  0.810371  0.423362  1
  O  O65  1  0.932182  0.387461  0.336283  1
  O  O66  1  0.923277  0.098889  0.114372  1
  O  O67  1  0.929748  0.550646  0.129179  1
