# generated using pymatgen
data_LiFe(PO3)3
_symmetry_space_group_name_H-M   'P 1'
_cell_length_a   7.07361341
_cell_length_b   7.40666504
_cell_length_c   6.80583244
_cell_angle_alpha   102.80310909
_cell_angle_beta   95.32238535
_cell_angle_gamma   84.04074935
_symmetry_Int_Tables_number   1
_chemical_formula_structural   LiFe(PO3)3
_chemical_formula_sum   'Li2 Fe2 P6 O18'
_cell_volume   344.93055143
_cell_formula_units_Z   2
loop_
 _symmetry_equiv_pos_site_id
 _symmetry_equiv_pos_as_xyz
  1  'x, y, z'
loop_
 _atom_site_type_symbol
 _atom_site_label
 _atom_site_symmetry_multiplicity
 _atom_site_fract_x
 _atom_site_fract_y
 _atom_site_fract_z
 _atom_site_occupancy
  Li  Li0  1  0.274889  0.129919  0.928662  1
  Li  Li1  1  0.725111  0.870081  0.071338  1
  Fe  Fe2  1  0.146151  0.151280  0.439497  1
  Fe  Fe3  1  0.853849  0.848720  0.560503  1
  P  P4  1  0.151904  0.548992  0.772591  1
  P  P5  1  0.297653  0.777100  0.151928  1
  P  P6  1  0.380192  0.777717  0.583974  1
  P  P7  1  0.619808  0.222283  0.416026  1
  P  P8  1  0.702347  0.222900  0.848072  1
  P  P9  1  0.848096  0.451008  0.227409  1
  O  O10  1  0.028588  0.332432  0.259096  1
  O  O11  1  0.150974  0.339984  0.713340  1
  O  O12  1  0.133417  0.925551  0.196866  1
  O  O13  1  0.231324  0.941896  0.637326  1
  O  O14  1  0.220515  0.590474  0.008259  1
  O  O15  1  0.325558  0.604641  0.667028  1
  O  O16  1  0.355687  0.688936  0.346120  1
  O  O17  1  0.414406  0.195850  0.357881  1
  O  O18  1  0.534260  0.173723  0.935109  1
  O  O19  1  0.465740  0.826277  0.064891  1
  O  O20  1  0.585594  0.804150  0.642119  1
  O  O21  1  0.644313  0.311064  0.653880  1
  O  O22  1  0.674442  0.395359  0.332972  1
  O  O23  1  0.779485  0.409526  0.991741  1
  O  O24  1  0.768676  0.058104  0.362674  1
  O  O25  1  0.866583  0.074449  0.803134  1
  O  O26  1  0.849026  0.660016  0.286661  1
  O  O27  1  0.971412  0.667568  0.740904  1
