# generated using pymatgen
data_MgCr3(SO4)6
_symmetry_space_group_name_H-M   'P 1'
_cell_length_a   8.85711066
_cell_length_b   8.85711065
_cell_length_c   8.85711101
_cell_angle_alpha   55.91041818
_cell_angle_beta   55.91041819
_cell_angle_gamma   55.91041752
_symmetry_Int_Tables_number   1
_chemical_formula_structural   MgCr3(SO4)6
_chemical_formula_sum   'Mg1 Cr3 S6 O24'
_cell_volume   444.74852187
_cell_formula_units_Z   1
loop_
 _symmetry_equiv_pos_site_id
 _symmetry_equiv_pos_as_xyz
  1  'x, y, z'
loop_
 _atom_site_type_symbol
 _atom_site_label
 _atom_site_symmetry_multiplicity
 _atom_site_fract_x
 _atom_site_fract_y
 _atom_site_fract_z
 _atom_site_occupancy
  Mg  Mg0  1  0.358251  0.358251  0.358251  1
  Cr  Cr1  1  0.150817  0.150817  0.150817  1
  Cr  Cr2  1  0.644250  0.644250  0.644250  1
  Cr  Cr3  1  0.849685  0.849685  0.849685  1
  S  S4  1  0.039435  0.754164  0.460361  1
  S  S5  1  0.538757  0.955680  0.253310  1
  S  S6  1  0.253310  0.538757  0.955680  1
  S  S7  1  0.754164  0.460361  0.039435  1
  S  S8  1  0.460361  0.039435  0.754164  1
  S  S9  1  0.955680  0.253310  0.538757  1
  O  O10  1  0.006605  0.961650  0.329483  1
  O  O11  1  0.018116  0.722213  0.657168  1
  O  O12  1  0.348959  0.971555  0.279994  1
  O  O13  1  0.045353  0.675815  0.977198  1
  O  O14  1  0.489329  0.888164  0.704941  1
  O  O15  1  0.234201  0.625498  0.380722  1
  O  O16  1  0.675815  0.977198  0.045353  1
  O  O17  1  0.383750  0.621581  0.757008  1
  O  O18  1  0.293726  0.515212  0.107048  1
  O  O19  1  0.107048  0.293726  0.515212  1
  O  O20  1  0.621581  0.757008  0.383750  1
  O  O21  1  0.279994  0.348959  0.971555  1
  O  O22  1  0.722213  0.657168  0.018116  1
  O  O23  1  0.380722  0.234201  0.625498  1
  O  O24  1  0.888164  0.704941  0.489329  1
  O  O25  1  0.704941  0.489329  0.888164  1
  O  O26  1  0.625498  0.380722  0.234201  1
  O  O27  1  0.329483  0.006605  0.961650  1
  O  O28  1  0.757008  0.383750  0.621581  1
  O  O29  1  0.515212  0.107048  0.293726  1
  O  O30  1  0.961650  0.329483  0.006605  1
  O  O31  1  0.657168  0.018116  0.722213  1
  O  O32  1  0.971555  0.279994  0.348959  1
  O  O33  1  0.977198  0.045353  0.675815  1
