# generated using pymatgen
data_CoPO4
_symmetry_space_group_name_H-M   'P 1'
_cell_length_a   10.38209757
_cell_length_b   10.38209708
_cell_length_c   24.72789260
_cell_angle_alpha   90.00000000
_cell_angle_beta   90.00000000
_cell_angle_gamma   60.00000397
_symmetry_Int_Tables_number   1
_chemical_formula_structural   CoPO4
_chemical_formula_sum   'Co24 P24 O96'
_cell_volume   2308.27711888
_cell_formula_units_Z   24
loop_
 _symmetry_equiv_pos_site_id
 _symmetry_equiv_pos_as_xyz
  1  'x, y, z'
loop_
 _atom_site_type_symbol
 _atom_site_label
 _atom_site_symmetry_multiplicity
 _atom_site_fract_x
 _atom_site_fract_y
 _atom_site_fract_z
 _atom_site_occupancy
  Co  Co0  1  0.304929  0.885262  0.846448  1
  Co  Co1  1  0.148244  0.684846  0.683782  1
  Co  Co2  1  0.315154  0.833090  0.517115  1
  Co  Co3  1  0.190190  0.695071  0.013114  1
  Co  Co4  1  0.165259  0.632705  0.377542  1
  Co  Co5  1  0.367295  0.797965  0.210875  1
  Co  Co6  1  0.114738  0.190190  0.679781  1
  Co  Co7  1  0.797965  0.834741  0.544209  1
  Co  Co8  1  0.833090  0.851756  0.850448  1
  Co  Co9  1  0.653935  0.665582  0.655591  1
  Co  Co10  1  0.319517  0.346065  0.822258  1
  Co  Co11  1  0.334418  0.319517  0.488924  1
  Co  Co12  1  0.665582  0.680483  0.988924  1
  Co  Co13  1  0.680483  0.653935  0.322258  1
  Co  Co14  1  0.346065  0.334418  0.155591  1
  Co  Co15  1  0.166910  0.148244  0.350448  1
  Co  Co16  1  0.202035  0.165259  0.044209  1
  Co  Co17  1  0.885262  0.809810  0.179781  1
  Co  Co18  1  0.632705  0.202035  0.710875  1
  Co  Co19  1  0.834741  0.367295  0.877542  1
  Co  Co20  1  0.809810  0.304929  0.513114  1
  Co  Co21  1  0.684846  0.166910  0.017115  1
  Co  Co22  1  0.851756  0.315154  0.183782  1
  Co  Co23  1  0.695071  0.114738  0.346448  1
  P  P24  1  0.325372  0.884106  0.973193  1
  P  P25  1  0.305187  0.855755  0.643226  1
  P  P26  1  0.160943  0.694813  0.809892  1
  P  P27  1  0.130967  0.654668  0.503912  1
  P  P28  1  0.209479  0.674628  0.139860  1
  P  P29  1  0.345332  0.785634  0.337246  1
  P  P30  1  0.115894  0.209479  0.806527  1
  P  P31  1  0.785634  0.869033  0.670579  1
  P  P32  1  0.646322  0.681590  0.854780  1
  P  P33  1  0.327912  0.353678  0.021446  1
  P  P34  1  0.144245  0.160943  0.476559  1
  P  P35  1  0.318410  0.327912  0.688113  1
  P  P36  1  0.681590  0.672088  0.188113  1
  P  P37  1  0.855755  0.839057  0.976559  1
  P  P38  1  0.672088  0.646322  0.521446  1
  P  P39  1  0.353678  0.318410  0.354780  1
  P  P40  1  0.214366  0.130967  0.170579  1
  P  P41  1  0.884106  0.790521  0.306527  1
  P  P42  1  0.654668  0.214366  0.837246  1
  P  P43  1  0.790521  0.325372  0.639860  1
  P  P44  1  0.869033  0.345332  0.003912  1
  P  P45  1  0.839057  0.305187  0.309892  1
  P  P46  1  0.694813  0.144245  0.143226  1
  P  P47  1  0.674628  0.115894  0.473193  1
  O  O48  1  0.182245  0.987117  0.675830  1
  O  O49  1  0.200741  0.007392  0.007770  1
  O  O50  1  0.221712  0.950759  0.339038  1
  O  O51  1  0.995345  0.735241  0.805245  1
  O  O52  1  0.169361  0.817755  0.842497  1
  O  O53  1  0.000028  0.691632  0.542984  1
  O  O54  1  0.172472  0.778288  0.505705  1
  O  O55  1  0.325408  0.943528  0.915543  1
  O  O56  1  0.208133  0.799259  0.174437  1
  O  O57  1  0.048077  0.703509  0.134685  1
  O  O58  1  0.314720  0.908946  0.585425  1
  O  O59  1  0.085754  0.638042  0.445342  1
  O  O60  1  0.223666  0.685280  0.752092  1
  O  O61  1  0.264759  0.730586  0.638578  1
  O  O62  1  0.268935  0.674592  0.082209  1
  O  O63  1  0.296491  0.751586  0.968019  1
  O  O64  1  0.476170  0.836392  0.001568  1
  O  O65  1  0.308368  0.691661  0.376317  1
  O  O66  1  0.455922  0.797633  0.672665  1
  O  O67  1  0.191818  0.489452  0.678150  1
  O  O68  1  0.361958  0.723796  0.278676  1
  O  O69  1  0.496083  0.769183  0.355696  1
  O  O70  1  0.691661  0.999972  0.709650  1
  O  O71  1  0.221949  0.506443  0.995711  1
  O  O72  1  0.730586  0.004655  0.971911  1
  O  O73  1  0.253555  0.544078  0.839331  1
  O  O74  1  0.232818  0.468701  0.329997  1
  O  O75  1  0.265266  0.503917  0.522363  1
  O  O76  1  0.056472  0.268935  0.748876  1
  O  O77  1  0.493557  0.728391  0.829044  1
  O  O78  1  0.723796  0.914246  0.612009  1
  O  O79  1  0.751586  0.951923  0.301352  1
  O  O80  1  0.312562  0.523830  0.168234  1
  O  O81  1  0.163608  0.312562  0.834901  1
  O  O82  1  0.681271  0.808182  0.844817  1
  O  O83  1  0.992608  0.208133  0.841103  1
  O  O84  1  0.091054  0.223666  0.418759  1
  O  O85  1  0.510548  0.681271  0.511484  1
  O  O86  1  0.531299  0.701519  0.163331  1
  O  O87  1  0.701519  0.767182  0.496664  1
  O  O88  1  0.012883  0.169361  0.509163  1
  O  O89  1  0.290677  0.356819  0.082483  1
  O  O90  1  0.647496  0.709323  0.249149  1
  O  O91  1  0.049241  0.172472  0.172371  1
  O  O92  1  0.202367  0.253555  0.505998  1
  O  O93  1  0.230817  0.265266  0.189029  1
  O  O94  1  0.728391  0.778051  0.162378  1
  O  O95  1  0.643181  0.647496  0.915816  1
  O  O96  1  0.356819  0.352504  0.415816  1
  O  O97  1  0.271609  0.221949  0.662378  1
  O  O98  1  0.769183  0.734734  0.689029  1
  O  O99  1  0.797633  0.746445  0.005998  1
  O  O100  1  0.950759  0.827528  0.672371  1
  O  O101  1  0.352504  0.290677  0.749149  1
  O  O102  1  0.709323  0.643181  0.582483  1
  O  O103  1  0.987117  0.830639  0.009163  1
  O  O104  1  0.298481  0.232818  0.996664  1
  O  O105  1  0.468701  0.298481  0.663331  1
  O  O106  1  0.489452  0.318729  0.011484  1
  O  O107  1  0.908946  0.776334  0.918759  1
  O  O108  1  0.007392  0.791867  0.341103  1
  O  O109  1  0.318729  0.191818  0.344817  1
  O  O110  1  0.836392  0.687438  0.334901  1
  O  O111  1  0.687438  0.476170  0.668234  1
  O  O112  1  0.248414  0.048077  0.801352  1
  O  O113  1  0.276204  0.085754  0.112009  1
  O  O114  1  0.506443  0.271609  0.329044  1
  O  O115  1  0.943528  0.731065  0.248876  1
  O  O116  1  0.734734  0.496083  0.022363  1
  O  O117  1  0.767182  0.531299  0.829997  1
  O  O118  1  0.746445  0.455922  0.339331  1
  O  O119  1  0.269414  0.995345  0.471911  1
  O  O120  1  0.778051  0.493557  0.495711  1
  O  O121  1  0.308339  0.000028  0.209650  1
  O  O122  1  0.503917  0.230817  0.855696  1
  O  O123  1  0.638042  0.276204  0.778676  1
  O  O124  1  0.808182  0.510548  0.178150  1
  O  O125  1  0.544078  0.202367  0.172665  1
  O  O126  1  0.691632  0.308339  0.876317  1
  O  O127  1  0.523830  0.163608  0.501568  1
  O  O128  1  0.703509  0.248414  0.468019  1
  O  O129  1  0.731065  0.325408  0.582209  1
  O  O130  1  0.735241  0.269414  0.138578  1
  O  O131  1  0.776334  0.314720  0.252092  1
  O  O132  1  0.914246  0.361958  0.945342  1
  O  O133  1  0.685280  0.091054  0.085425  1
  O  O134  1  0.951923  0.296491  0.634685  1
  O  O135  1  0.791867  0.200741  0.674437  1
  O  O136  1  0.674592  0.056472  0.415543  1
  O  O137  1  0.827528  0.221712  0.005705  1
  O  O138  1  0.999972  0.308368  0.042984  1
  O  O139  1  0.830639  0.182245  0.342497  1
  O  O140  1  0.004655  0.264759  0.305245  1
  O  O141  1  0.778288  0.049241  0.839038  1
  O  O142  1  0.799259  0.992608  0.507770  1
  O  O143  1  0.817755  0.012883  0.175830  1
