# generated using pymatgen
data_MgMoF6
_symmetry_space_group_name_H-M   'P 1'
_cell_length_a   5.61845675
_cell_length_b   5.61845614
_cell_length_c   5.61845580
_cell_angle_alpha   57.42050787
_cell_angle_beta   57.42050629
_cell_angle_gamma   57.42051134
_symmetry_Int_Tables_number   1
_chemical_formula_structural   MgMoF6
_chemical_formula_sum   'Mg1 Mo1 F6'
_cell_volume   117.96780543
_cell_formula_units_Z   1
loop_
 _symmetry_equiv_pos_site_id
 _symmetry_equiv_pos_as_xyz
  1  'x, y, z'
loop_
 _atom_site_type_symbol
 _atom_site_label
 _atom_site_symmetry_multiplicity
 _atom_site_fract_x
 _atom_site_fract_y
 _atom_site_fract_z
 _atom_site_occupancy
  Mg  Mg0  1  0.500000  0.500000  0.500000  1
  Mo  Mo1  1  0.000000  0.000000  0.000000  1
  F  F2  1  0.337495  0.161875  0.754171  1
  F  F3  1  0.161875  0.754171  0.337495  1
  F  F4  1  0.245829  0.662505  0.838125  1
  F  F5  1  0.838125  0.245829  0.662505  1
  F  F6  1  0.662505  0.838125  0.245829  1
  F  F7  1  0.754171  0.337495  0.161875  1
