# generated using pymatgen
data_Cu3(SnO3)4
_symmetry_space_group_name_H-M   'P 1'
_cell_length_a   6.66627934
_cell_length_b   6.66630937
_cell_length_c   6.66639258
_cell_angle_alpha   109.52341245
_cell_angle_beta   109.45599905
_cell_angle_gamma   109.43555246
_symmetry_Int_Tables_number   1
_chemical_formula_structural   Cu3(SnO3)4
_chemical_formula_sum   'Cu3 Sn4 O12'
_cell_volume   228.05036866
_cell_formula_units_Z   1
loop_
 _symmetry_equiv_pos_site_id
 _symmetry_equiv_pos_as_xyz
  1  'x, y, z'
loop_
 _atom_site_type_symbol
 _atom_site_label
 _atom_site_symmetry_multiplicity
 _atom_site_fract_x
 _atom_site_fract_y
 _atom_site_fract_z
 _atom_site_occupancy
  Cu  Cu0  1  0.499999  0.499996  0.000001  1
  Cu  Cu1  1  -0.000005  0.499993  0.499987  1
  Cu  Cu2  1  0.500008  0.000003  0.499992  1
  Sn  Sn3  1  0.500001  0.500007  0.500021  1
  Sn  Sn4  1  0.999985  0.500007  0.000006  1
  Sn  Sn5  1  0.000004  0.000007  0.500008  1
  Sn  Sn6  1  0.500002  -0.000001  -0.000001  1
  O  O7  1  0.827646  0.323516  0.151160  1
  O  O8  1  0.172354  0.676482  0.848836  1
  O  O9  1  0.827646  0.676482  0.504126  1
  O  O10  1  0.323128  0.495984  0.172857  1
  O  O11  1  0.496060  0.172762  0.323294  1
  O  O12  1  0.150532  0.827235  0.323294  1
  O  O13  1  0.676874  0.849730  0.172857  1
  O  O14  1  0.503942  0.827235  0.676703  1
  O  O15  1  0.172354  0.323515  0.495869  1
  O  O16  1  0.676873  0.504015  0.827143  1
  O  O17  1  0.849472  0.172764  0.676704  1
  O  O18  1  0.323126  0.150268  0.827142  1
