# generated using pymatgen
data_SnO2
_symmetry_space_group_name_H-M   'P 1'
_cell_length_a   3.22456533
_cell_length_b   9.33467615
_cell_length_c   11.35355028
_cell_angle_alpha   89.99908674
_cell_angle_beta   90.00003305
_cell_angle_gamma   90.00004270
_symmetry_Int_Tables_number   1
_chemical_formula_structural   SnO2
_chemical_formula_sum   'Sn8 O16'
_cell_volume   341.74496391
_cell_formula_units_Z   8
loop_
 _symmetry_equiv_pos_site_id
 _symmetry_equiv_pos_as_xyz
  1  'x, y, z'
loop_
 _atom_site_type_symbol
 _atom_site_label
 _atom_site_symmetry_multiplicity
 _atom_site_fract_x
 _atom_site_fract_y
 _atom_site_fract_z
 _atom_site_occupancy
  Sn  Sn0  1  0.249999  0.412639  0.102701  1
  Sn  Sn1  1  0.750000  0.087365  0.602660  1
  Sn  Sn2  1  0.250000  0.912684  0.397303  1
  Sn  Sn3  1  0.750000  0.587347  0.897328  1
  Sn  Sn4  1  0.749999  0.552429  0.383022  1
  Sn  Sn5  1  0.250000  0.447542  0.617017  1
  Sn  Sn6  1  0.750000  0.052455  0.116979  1
  Sn  Sn7  1  0.250000  0.947550  0.882990  1
  O  O8  1  0.249999  0.920992  0.071249  1
  O  O9  1  0.750000  0.078992  0.928714  1
  O  O10  1  0.249999  0.421017  0.428748  1
  O  O11  1  0.750000  0.579004  0.571279  1
  O  O12  1  0.250000  0.033558  0.713891  1
  O  O13  1  0.749999  0.966432  0.286087  1
  O  O14  1  0.249999  0.533556  0.786110  1
  O  O15  1  0.749999  0.466430  0.213921  1
  O  O16  1  0.250000  0.615691  0.013066  1
  O  O17  1  0.749999  0.384307  0.986953  1
  O  O18  1  0.250000  0.115696  0.486933  1
  O  O19  1  0.749999  0.884319  0.513045  1
  O  O20  1  0.749999  0.804556  0.852197  1
  O  O21  1  0.250000  0.195430  0.147790  1
  O  O22  1  0.250000  0.695463  0.352212  1
  O  O23  1  0.749999  0.304547  0.647802  1
