# generated using pymatgen
data_Mg(NiO2)2
_symmetry_space_group_name_H-M   'P 1'
_cell_length_a   5.83532166
_cell_length_b   5.87542827
_cell_length_c   23.28208967
_cell_angle_alpha   59.68745849
_cell_angle_beta   60.72065987
_cell_angle_gamma   59.77237901
_symmetry_Int_Tables_number   1
_chemical_formula_structural   Mg(NiO2)2
_chemical_formula_sum   'Mg8 Ni16 O32'
_cell_volume   565.08739026
_cell_formula_units_Z   8
loop_
 _symmetry_equiv_pos_site_id
 _symmetry_equiv_pos_as_xyz
  1  'x, y, z'
loop_
 _atom_site_type_symbol
 _atom_site_label
 _atom_site_symmetry_multiplicity
 _atom_site_fract_x
 _atom_site_fract_y
 _atom_site_fract_z
 _atom_site_occupancy
  Mg  Mg0  1  0.150557  0.120616  0.027053  1
  Mg  Mg1  1  0.998880  0.500161  0.125199  1
  Mg  Mg2  1  0.144916  0.113310  0.282116  1
  Mg  Mg3  1  0.002702  0.498512  0.375069  1
  Mg  Mg4  1  0.999297  0.499729  0.625311  1
  Mg  Mg5  1  0.500785  0.501291  0.499158  1
  Mg  Mg6  1  0.996159  0.502150  0.874885  1
  Mg  Mg7  1  0.503200  0.498257  0.750071  1
  Ni  Ni8  1  0.499136  0.498835  0.124826  1
  Ni  Ni9  1  0.498435  0.499610  0.250586  1
  Ni  Ni10  1  0.499136  0.002725  0.124826  1
  Ni  Ni11  1  0.131752  0.115156  0.534484  1
  Ni  Ni12  1  0.504890  0.495348  0.374481  1
  Ni  Ni13  1  0.858125  0.881517  0.219710  1
  Ni  Ni14  1  0.139165  0.117090  0.781663  1
  Ni  Ni15  1  0.504890  0.001839  0.374481  1
  Ni  Ni16  1  0.499776  0.500338  0.625483  1
  Ni  Ni17  1  0.866985  0.882306  0.467100  1
  Ni  Ni18  1  0.499776  0.997952  0.625483  1
  Ni  Ni19  1  0.497939  0.999289  0.874672  1
  Ni  Ni20  1  0.497939  0.504085  0.874672  1
  Ni  Ni21  1  0.863819  0.885984  0.716053  1
  Ni  Ni22  1  0.498772  0.497122  0.001746  1
  Ni  Ni23  1  0.856578  0.883399  0.969155  1
  O  O24  1  0.282484  0.260462  0.062963  1
  O  O25  1  0.282536  0.253532  0.177600  1
  O  O26  1  0.282484  0.705204  0.062963  1
  O  O27  1  0.733603  0.262987  0.060106  1
  O  O28  1  0.254250  0.751522  0.185676  1
  O  O29  1  0.284780  0.256434  0.314271  1
  O  O30  1  0.718491  0.288001  0.186824  1
  O  O31  1  0.268354  0.245986  0.434918  1
  O  O32  1  0.284780  0.701702  0.314271  1
  O  O33  1  0.714856  0.746821  0.072875  1
  O  O34  1  0.727412  0.250221  0.318037  1
  O  O35  1  0.718491  0.746210  0.186824  1
  O  O36  1  0.268547  0.243171  0.566800  1
  O  O37  1  0.270341  0.756080  0.429374  1
  O  O38  1  0.734280  0.282779  0.431566  1
  O  O39  1  0.268913  0.249786  0.682879  1
  O  O40  1  0.268547  0.721081  0.566800  1
  O  O41  1  0.726147  0.749381  0.318772  1
  O  O42  1  0.735665  0.247461  0.567353  1
  O  O43  1  0.734280  0.756679  0.431566  1
  O  O44  1  0.275863  0.750314  0.680877  1
  O  O45  1  0.261074  0.245376  0.816718  1
  O  O46  1  0.728373  0.284863  0.682613  1
  O  O47  1  0.287043  0.257547  0.924465  1
  O  O48  1  0.261074  0.726676  0.816718  1
  O  O49  1  0.725548  0.752905  0.567161  1
  O  O50  1  0.757310  0.244546  0.813399  1
  O  O51  1  0.728373  0.756314  0.682613  1
  O  O52  1  0.268832  0.726192  0.944696  1
  O  O53  1  0.710483  0.293604  0.939040  1
  O  O54  1  0.712693  0.749790  0.821932  1
  O  O55  1  0.710483  0.739753  0.939040  1
