# generated using pymatgen
data_MgCrNiP2O9
_symmetry_space_group_name_H-M   'P 1'
_cell_length_a   6.27436844
_cell_length_b   7.42714466
_cell_length_c   14.05258454
_cell_angle_alpha   89.98997950
_cell_angle_beta   89.99892709
_cell_angle_gamma   90.00198102
_symmetry_Int_Tables_number   1
_chemical_formula_structural   MgCrNiP2O9
_chemical_formula_sum   'Mg4 Cr4 Ni4 P8 O36'
_cell_volume   654.85945165
_cell_formula_units_Z   4
loop_
 _symmetry_equiv_pos_site_id
 _symmetry_equiv_pos_as_xyz
  1  'x, y, z'
loop_
 _atom_site_type_symbol
 _atom_site_label
 _atom_site_symmetry_multiplicity
 _atom_site_fract_x
 _atom_site_fract_y
 _atom_site_fract_z
 _atom_site_occupancy
  Mg  Mg0  1  0.749927  0.927329  0.775519  1
  Mg  Mg1  1  0.750128  0.570519  0.275679  1
  Mg  Mg2  1  0.249975  0.071890  0.224408  1
  Mg  Mg3  1  0.249947  0.429705  0.724219  1
  Cr  Cr4  1  0.750220  0.355630  0.882862  1
  Cr  Cr5  1  0.250340  0.644493  0.117027  1
  Cr  Cr6  1  0.250068  0.855084  0.617193  1
  Cr  Cr7  1  0.749770  0.144426  0.382864  1
  Ni  Ni8  1  0.500979  0.001590  -0.000267  1
  Ni  Ni9  1  0.500205  0.500070  0.499971  1
  Ni  Ni10  1  -0.000790  0.498964  0.499541  1
  Ni  Ni11  1  0.999813  -0.000605  0.000473  1
  P  P12  1  0.249962  0.352739  0.931915  1
  P  P13  1  0.750055  0.647160  0.067999  1
  P  P14  1  0.750063  0.852669  0.567955  1
  P  P15  1  0.249987  0.147289  0.432128  1
  P  P16  1  0.749967  0.383442  0.695790  1
  P  P17  1  0.250043  0.616631  0.304205  1
  P  P18  1  0.249875  0.882871  0.804488  1
  P  P19  1  0.749921  0.117349  0.195661  1
  O  O20  1  0.038379  0.609766  0.360873  1
  O  O21  1  0.538427  0.390491  0.639090  1
  O  O22  1  0.961552  0.110740  0.138986  1
  O  O23  1  0.461563  0.889246  0.861148  1
  O  O24  1  0.961436  0.390517  0.639040  1
  O  O25  1  0.461632  0.609642  0.360892  1
  O  O26  1  0.038227  0.889155  0.861149  1
  O  O27  1  0.538388  0.110878  0.138950  1
  O  O28  1  0.250002  0.334784  0.477065  1
  O  O29  1  0.750053  0.665378  0.522851  1
  O  O30  1  0.749608  0.835035  0.023478  1
  O  O31  1  0.249650  0.164823  0.976435  1
  O  O32  1  0.750362  0.146983  0.943834  1
  O  O33  1  0.250273  0.853246  0.056207  1
  O  O34  1  0.249678  0.646444  0.556349  1
  O  O35  1  0.749606  0.353291  0.443453  1
  O  O36  1  0.750034  0.207698  0.759927  1
  O  O37  1  0.250209  0.792385  0.240092  1
  O  O38  1  0.249999  0.707282  0.740339  1
  O  O39  1  0.750031  0.292853  0.259735  1
  O  O40  1  0.437609  0.123290  0.361580  1
  O  O41  1  0.937796  0.876803  0.638451  1
  O  O42  1  0.562269  0.622089  0.138390  1
  O  O43  1  0.062230  0.377728  0.861524  1
  O  O44  1  0.562343  0.876796  0.638483  1
  O  O45  1  0.062202  0.123118  0.361673  1
  O  O46  1  0.437777  0.377606  0.861565  1
  O  O47  1  0.937812  0.622564  0.138450  1
  O  O48  1  0.749909  0.967218  0.273468  1
  O  O49  1  0.249969  0.032867  0.726643  1
  O  O50  1  0.249821  0.466278  0.226606  1
  O  O51  1  0.749880  0.533821  0.773426  1
  O  O52  1  0.749989  0.992553  0.488629  1
  O  O53  1  0.250264  0.007608  0.511577  1
  O  O54  1  0.250114  0.491606  0.011717  1
  O  O55  1  0.750452  0.508169  0.988294  1
