# generated using pymatgen
data_Mn4(CuO4)3
_symmetry_space_group_name_H-M   'P 1'
_cell_length_a   6.30076891
_cell_length_b   6.30089282
_cell_length_c   6.30090862
_cell_angle_alpha   109.45554833
_cell_angle_beta   109.48654360
_cell_angle_gamma   109.47163616
_symmetry_Int_Tables_number   1
_chemical_formula_structural   Mn4(CuO4)3
_chemical_formula_sum   'Mn4 Cu3 O12'
_cell_volume   192.56464603
_cell_formula_units_Z   1
loop_
 _symmetry_equiv_pos_site_id
 _symmetry_equiv_pos_as_xyz
  1  'x, y, z'
loop_
 _atom_site_type_symbol
 _atom_site_label
 _atom_site_symmetry_multiplicity
 _atom_site_fract_x
 _atom_site_fract_y
 _atom_site_fract_z
 _atom_site_occupancy
  Mn  Mn0  1  0.000002  0.000009  0.500006  1
  Mn  Mn1  1  0.000008  0.499998  0.000010  1
  Mn  Mn2  1  0.500003  0.500007  0.500012  1
  Mn  Mn3  1  0.499994  0.000019  0.000005  1
  Cu  Cu4  1  0.499998  0.500000  0.999993  1
  Cu  Cu5  1  0.000000  0.499993  0.500006  1
  Cu  Cu6  1  0.500004  -0.000011  0.500007  1
  O  O7  1  0.503622  0.820579  0.683053  1
  O  O8  1  0.137534  0.820563  0.316977  1
  O  O9  1  0.862466  0.179435  0.683015  1
  O  O10  1  0.179475  0.316896  0.496357  1
  O  O11  1  0.316925  0.496473  0.179541  1
  O  O12  1  0.683085  0.503525  0.820462  1
  O  O13  1  0.820513  0.316909  0.137413  1
  O  O14  1  0.683119  0.862630  0.179519  1
  O  O15  1  0.496377  0.179428  0.316943  1
  O  O16  1  0.179480  0.683079  0.862577  1
  O  O17  1  0.820519  0.683103  0.503640  1
  O  O18  1  0.316875  0.137368  0.820470  1
