# generated using pymatgen
data_MgBiF5
_symmetry_space_group_name_H-M   'P 1'
_cell_length_a   5.78821186
_cell_length_b   5.76173299
_cell_length_c   8.27639633
_cell_angle_alpha   99.10436128
_cell_angle_beta   108.11752045
_cell_angle_gamma   108.74115118
_symmetry_Int_Tables_number   1
_chemical_formula_structural   MgBiF5
_chemical_formula_sum   'Mg2 Bi2 F10'
_cell_volume   237.98748144
_cell_formula_units_Z   2
loop_
 _symmetry_equiv_pos_site_id
 _symmetry_equiv_pos_as_xyz
  1  'x, y, z'
loop_
 _atom_site_type_symbol
 _atom_site_label
 _atom_site_symmetry_multiplicity
 _atom_site_fract_x
 _atom_site_fract_y
 _atom_site_fract_z
 _atom_site_occupancy
  Mg  Mg0  1  0.260270  0.513984  0.745587  1
  Mg  Mg1  1  0.737258  0.487233  0.249554  1
  Bi  Bi2  1  -0.000691  0.002558  -0.004093  1
  Bi  Bi3  1  0.493271  0.996110  0.495519  1
  F  F4  1  0.409489  0.162642  0.246879  1
  F  F5  1  0.585691  0.837439  0.748419  1
  F  F6  1  0.584683  0.692955  0.355472  1
  F  F7  1  0.838369  0.232495  0.140548  1
  F  F8  1  0.779864  0.671132  0.074153  1
  F  F9  1  0.093073  0.689779  0.431959  1
  F  F10  1  0.238361  0.338516  0.928892  1
  F  F11  1  0.899311  0.295438  0.574505  1
  F  F12  1  0.159921  0.771692  0.852112  1
  F  F13  1  0.410096  0.305682  0.639573  1
