# generated using pymatgen
data_MgCrO3
_symmetry_space_group_name_H-M   'P 1'
_cell_length_a   5.02308528
_cell_length_b   5.22871125
_cell_length_c   7.37066563
_cell_angle_alpha   89.99290490
_cell_angle_beta   90.00065257
_cell_angle_gamma   89.99864107
_symmetry_Int_Tables_number   1
_chemical_formula_structural   MgCrO3
_chemical_formula_sum   'Mg4 Cr4 O12'
_cell_volume   193.58509560
_cell_formula_units_Z   4
loop_
 _symmetry_equiv_pos_site_id
 _symmetry_equiv_pos_as_xyz
  1  'x, y, z'
loop_
 _atom_site_type_symbol
 _atom_site_label
 _atom_site_symmetry_multiplicity
 _atom_site_fract_x
 _atom_site_fract_y
 _atom_site_fract_z
 _atom_site_occupancy
  Mg  Mg0  1  0.989082  0.060198  0.249908  1
  Mg  Mg1  1  0.489103  0.439804  0.750092  1
  Mg  Mg2  1  0.510901  0.560204  0.249906  1
  Mg  Mg3  1  0.010905  0.939786  0.750092  1
  Cr  Cr4  1  0.499994  0.000016  -0.000028  1
  Cr  Cr5  1  0.000002  0.499998  0.000001  1
  Cr  Cr6  1  0.000015  0.499976  0.500017  1
  Cr  Cr7  1  0.500000  0.999992  0.499994  1
  O  O8  1  0.876587  0.555266  0.750034  1
  O  O9  1  0.376598  0.944769  0.249955  1
  O  O10  1  0.623403  0.055242  0.750032  1
  O  O11  1  0.123410  0.444727  0.249981  1
  O  O12  1  0.682973  0.313409  0.435757  1
  O  O13  1  0.182973  0.186599  0.564256  1
  O  O14  1  0.816975  0.813278  0.064238  1
  O  O15  1  0.316975  0.686747  0.935781  1
  O  O16  1  0.683017  0.313264  0.064218  1
  O  O17  1  0.183020  0.186738  0.935758  1
  O  O18  1  0.317023  0.686596  0.564250  1
  O  O19  1  0.817043  0.813391  0.435757  1
