# generated using pymatgen
data_MgVF4
_symmetry_space_group_name_H-M   'P 1'
_cell_length_a   5.53689535
_cell_length_b   5.13571190
_cell_length_c   7.03616967
_cell_angle_alpha   117.19112281
_cell_angle_beta   119.79095320
_cell_angle_gamma   90.98592169
_symmetry_Int_Tables_number   1
_chemical_formula_structural   MgVF4
_chemical_formula_sum   'Mg2 V2 F8'
_cell_volume   146.51408845
_cell_formula_units_Z   2
loop_
 _symmetry_equiv_pos_site_id
 _symmetry_equiv_pos_as_xyz
  1  'x, y, z'
loop_
 _atom_site_type_symbol
 _atom_site_label
 _atom_site_symmetry_multiplicity
 _atom_site_fract_x
 _atom_site_fract_y
 _atom_site_fract_z
 _atom_site_occupancy
  Mg  Mg0  1  0.195200  0.256605  0.516975  1
  Mg  Mg1  1  0.808667  0.741167  0.487945  1
  V  V2  1  0.002016  0.498851  0.002517  1
  V  V3  1  0.501973  0.998823  0.002430  1
  F  F4  1  0.923441  0.404020  0.256931  1
  F  F5  1  0.757662  0.040056  0.742514  1
  F  F6  1  0.080804  0.593836  0.748344  1
  F  F7  1  0.225786  0.031963  0.690184  1
  F  F8  1  0.246261  0.957579  0.262548  1
  F  F9  1  0.417492  0.417897  0.204425  1
  F  F10  1  0.777919  0.965676  0.314591  1
  F  F11  1  0.586507  0.579659  0.800532  1
