# generated using pymatgen
data_VO2
_symmetry_space_group_name_H-M   'P 1'
_cell_length_a   5.89004926
_cell_length_b   6.08725670
_cell_length_c   23.68362919
_cell_angle_alpha   58.83296421
_cell_angle_beta   59.61211287
_cell_angle_gamma   58.81513674
_symmetry_Int_Tables_number   1
_chemical_formula_structural   VO2
_chemical_formula_sum   'V16 O32'
_cell_volume   587.86699758
_cell_formula_units_Z   16
loop_
 _symmetry_equiv_pos_site_id
 _symmetry_equiv_pos_as_xyz
  1  'x, y, z'
loop_
 _atom_site_type_symbol
 _atom_site_label
 _atom_site_symmetry_multiplicity
 _atom_site_fract_x
 _atom_site_fract_y
 _atom_site_fract_z
 _atom_site_occupancy
  V  V0  1  0.485960  0.469979  0.130453  1
  V  V1  1  0.460471  0.490743  0.264878  1
  V  V2  1  0.492137  0.014625  0.122808  1
  V  V3  1  0.126709  0.120049  0.533285  1
  V  V4  1  0.507324  0.493031  0.377645  1
  V  V5  1  0.855558  0.882304  0.220077  1
  V  V6  1  0.130545  0.127389  0.778987  1
  V  V7  1  0.507693  0.988243  0.377634  1
  V  V8  1  0.503543  0.500012  0.623927  1
  V  V9  1  0.880491  0.876385  0.466516  1
  V  V10  1  0.503268  0.000781  0.623852  1
  V  V11  1  0.507115  0.011043  0.869220  1
  V  V12  1  0.485255  0.487791  0.877155  1
  V  V13  1  0.879182  0.871243  0.718624  1
  V  V14  1  0.484864  0.507480  0.008077  1
  V  V15  1  0.855550  0.878984  0.971321  1
  O  O16  1  0.291776  0.239004  0.066872  1
  O  O17  1  0.285032  0.264469  0.178841  1
  O  O18  1  0.285943  0.710841  0.058571  1
  O  O19  1  0.719712  0.256427  0.067335  1
  O  O20  1  0.270817  0.734943  0.188570  1
  O  O21  1  0.284357  0.264091  0.312182  1
  O  O22  1  0.724296  0.256862  0.191032  1
  O  O23  1  0.269606  0.232392  0.441103  1
  O  O24  1  0.284336  0.703735  0.312118  1
  O  O25  1  0.710908  0.760972  0.064850  1
  O  O26  1  0.704949  0.268021  0.315165  1
  O  O27  1  0.715962  0.772130  0.188933  1
  O  O28  1  0.252301  0.221733  0.563278  1
  O  O29  1  0.265289  0.759968  0.428403  1
  O  O30  1  0.762355  0.224013  0.434378  1
  O  O31  1  0.270980  0.244580  0.684678  1
  O  O32  1  0.252063  0.771860  0.563571  1
  O  O33  1  0.730107  0.757222  0.313614  1
  O  O34  1  0.735780  0.245884  0.568338  1
  O  O35  1  0.762016  0.775905  0.434549  1
  O  O36  1  0.267875  0.753038  0.681205  1
  O  O37  1  0.251268  0.226309  0.810388  1
  O  O38  1  0.755570  0.217959  0.687131  1
  O  O39  1  0.286352  0.287995  0.916310  1
  O  O40  1  0.252265  0.781275  0.811161  1
  O  O41  1  0.738307  0.760207  0.560378  1
  O  O42  1  0.749582  0.248688  0.815912  1
  O  O43  1  0.755797  0.777972  0.686536  1
  O  O44  1  0.266224  0.741884  0.935093  1
  O  O45  1  0.715139  0.258377  0.941332  1
  O  O46  1  0.725028  0.751786  0.813762  1
  O  O47  1  0.719971  0.766317  0.939573  1
