# generated using pymatgen
data_VNiP2O9
_symmetry_space_group_name_H-M   'P 1'
_cell_length_a   6.27620555
_cell_length_b   7.81709578
_cell_length_c   13.92829252
_cell_angle_alpha   90.00997050
_cell_angle_beta   90.02281023
_cell_angle_gamma   90.00621537
_symmetry_Int_Tables_number   1
_chemical_formula_structural   VNiP2O9
_chemical_formula_sum   'V4 Ni4 P8 O36'
_cell_volume   683.34563936
_cell_formula_units_Z   4
loop_
 _symmetry_equiv_pos_site_id
 _symmetry_equiv_pos_as_xyz
  1  'x, y, z'
loop_
 _atom_site_type_symbol
 _atom_site_label
 _atom_site_symmetry_multiplicity
 _atom_site_fract_x
 _atom_site_fract_y
 _atom_site_fract_z
 _atom_site_occupancy
  V  V0  1  0.750067  0.344553  0.880603  1
  V  V1  1  0.249938  0.655393  0.119432  1
  V  V2  1  0.249994  0.844672  0.619375  1
  V  V3  1  0.750000  0.155302  0.380568  1
  Ni  Ni4  1  0.500012  -0.000001  0.000018  1
  Ni  Ni5  1  0.499994  0.499995  0.499990  1
  Ni  Ni6  1  -0.000004  0.499993  0.499979  1
  Ni  Ni7  1  -0.000007  -0.000006  0.000024  1
  P  P8  1  0.249954  0.349039  0.940166  1
  P  P9  1  0.750049  0.650901  0.059759  1
  P  P10  1  0.750103  0.849078  0.559814  1
  P  P11  1  0.249897  0.150881  0.440249  1
  P  P12  1  0.749945  0.390173  0.689541  1
  P  P13  1  0.250044  0.609868  0.310307  1
  P  P14  1  0.250223  0.890070  0.810392  1
  P  P15  1  0.749787  0.109975  0.189764  1
  O  O16  1  0.047604  0.606666  0.371663  1
  O  O17  1  0.547800  0.393290  0.628376  1
  O  O18  1  0.952332  0.106753  0.128293  1
  O  O19  1  0.452454  0.893192  0.871674  1
  O  O20  1  0.952420  0.393360  0.628350  1
  O  O21  1  0.452164  0.606727  0.371653  1
  O  O22  1  0.047655  0.893280  0.871693  1
  O  O23  1  0.547559  0.106840  0.128306  1
  O  O24  1  0.250018  0.334122  0.480613  1
  O  O25  1  0.749979  0.665911  0.519376  1
  O  O26  1  0.749996  0.834095  0.019395  1
  O  O27  1  0.250006  0.165946  0.980619  1
  O  O28  1  0.750059  0.159363  0.944025  1
  O  O29  1  0.249944  0.840566  0.055981  1
  O  O30  1  0.249888  0.659421  0.555906  1
  O  O31  1  0.750106  0.340495  0.444087  1
  O  O32  1  0.750101  0.228879  0.758607  1
  O  O33  1  0.249910  0.771034  0.241401  1
  O  O34  1  0.250049  0.728892  0.741337  1
  O  O35  1  0.749951  0.271029  0.258653  1
  O  O36  1  0.448905  0.128124  0.375666  1
  O  O37  1  0.948846  0.871805  0.624343  1
  O  O38  1  0.551030  0.628266  0.124352  1
  O  O39  1  0.051221  0.371789  0.875667  1
  O  O40  1  0.551141  0.871833  0.624332  1
  O  O41  1  0.051103  0.128155  0.375653  1
  O  O42  1  0.448916  0.371706  0.875651  1
  O  O43  1  0.948838  0.628184  0.124336  1
  O  O44  1  0.749830  0.966823  0.268231  1
  O  O45  1  0.250173  0.033345  0.731881  1
  O  O46  1  0.249998  0.466821  0.231747  1
  O  O47  1  0.750006  0.533350  0.768150  1
  O  O48  1  0.750035  0.987088  0.481337  1
  O  O49  1  0.249967  0.012930  0.518693  1
  O  O50  1  0.250040  0.487223  0.018635  1
  O  O51  1  0.749959  0.512813  0.981334  1
