# generated using pymatgen
data_CoO2
_symmetry_space_group_name_H-M   'P 1'
_cell_length_a   5.65622898
_cell_length_b   5.64990261
_cell_length_c   17.09759156
_cell_angle_alpha   60.26338474
_cell_angle_beta   60.14979809
_cell_angle_gamma   60.28153125
_symmetry_Int_Tables_number   1
_chemical_formula_structural   CoO2
_chemical_formula_sum   'Co12 O24'
_cell_volume   388.38050597
_cell_formula_units_Z   12
loop_
 _symmetry_equiv_pos_site_id
 _symmetry_equiv_pos_as_xyz
  1  'x, y, z'
loop_
 _atom_site_type_symbol
 _atom_site_label
 _atom_site_symmetry_multiplicity
 _atom_site_fract_x
 _atom_site_fract_y
 _atom_site_fract_z
 _atom_site_occupancy
  Co  Co0  1  0.494905  0.494193  0.166696  1
  Co  Co1  1  0.494691  0.011158  0.166727  1
  Co  Co2  1  0.494195  0.494103  0.500398  1
  Co  Co3  1  0.011585  0.493981  0.166827  1
  Co  Co4  1  0.496601  0.008339  0.500031  1
  Co  Co5  1  0.502989  0.503276  0.663349  1
  Co  Co6  1  0.877948  0.878110  0.288500  1
  Co  Co7  1  0.501781  0.502111  0.830567  1
  Co  Co8  1  0.008598  0.496593  0.499971  1
  Co  Co9  1  0.499627  0.004672  0.831510  1
  Co  Co10  1  0.002864  0.502400  0.831812  1
  Co  Co11  1  0.875769  0.877886  0.956873  1
  O  O12  1  0.253138  0.251962  0.098960  1
  O  O13  1  0.260358  0.260814  0.238804  1
  O  O14  1  0.254102  0.698666  0.098715  1
  O  O15  1  0.699255  0.253469  0.098531  1
  O  O16  1  0.246979  0.245981  0.434545  1
  O  O17  1  0.268605  0.758103  0.238113  1
  O  O18  1  0.263972  0.264811  0.570861  1
  O  O19  1  0.757822  0.268680  0.238110  1
  O  O20  1  0.742298  0.739785  0.093026  1
  O  O21  1  0.244981  0.707058  0.434907  1
  O  O22  1  0.707071  0.244727  0.434795  1
  O  O23  1  0.758023  0.758551  0.237895  1
  O  O24  1  0.265634  0.267643  0.754207  1
  O  O25  1  0.295381  0.731551  0.578379  1
  O  O26  1  0.731960  0.295339  0.578090  1
  O  O27  1  0.267701  0.266768  0.900413  1
  O  O28  1  0.741564  0.740837  0.425107  1
  O  O29  1  0.266006  0.706888  0.754752  1
  O  O30  1  0.707701  0.266313  0.754119  1
  O  O31  1  0.731464  0.732189  0.578377  1
  O  O32  1  0.275572  0.758075  0.901661  1
  O  O33  1  0.761914  0.275131  0.900239  1
  O  O34  1  0.733436  0.737201  0.764171  1
  O  O35  1  0.759751  0.758881  0.900378  1
