# generated using pymatgen
data_V4O9
_symmetry_space_group_name_H-M   'P 1'
_cell_length_a   5.02144500
_cell_length_b   8.49285435
_cell_length_c   8.49285435
_cell_angle_alpha   90.00000000
_cell_angle_beta   90.00000000
_cell_angle_gamma   90.00000000
_symmetry_Int_Tables_number   1
_chemical_formula_structural   V4O9
_chemical_formula_sum   'V8 O18'
_cell_volume   362.18967234
_cell_formula_units_Z   2
loop_
 _symmetry_equiv_pos_site_id
 _symmetry_equiv_pos_as_xyz
  1  'x, y, z'
loop_
 _atom_site_type_symbol
 _atom_site_label
 _atom_site_symmetry_multiplicity
 _atom_site_fract_x
 _atom_site_fract_y
 _atom_site_fract_z
 _atom_site_occupancy
  V  V0  1  0.616303  0.531847  0.343168  1
  V  V1  1  0.383698  0.843167  0.468154  1
  V  V2  1  0.616303  0.343167  0.968154  1
  V  V3  1  0.383698  0.031846  0.843167  1
  V  V4  1  0.616303  0.968154  0.156832  1
  V  V5  1  0.616303  0.156833  0.531847  1
  V  V6  1  0.383698  0.468154  0.656832  1
  V  V7  1  0.383698  0.656832  0.031846  1
  O  O8  1  0.499999  0.750000  0.250000  1
  O  O9  1  0.499999  0.250001  0.750000  1
  O  O10  1  0.066110  0.669776  0.014216  1
  O  O11  1  0.066110  0.485785  0.669775  1
  O  O12  1  0.066110  0.014216  0.830225  1
  O  O13  1  0.066110  0.830225  0.485784  1
  O  O14  1  0.933891  0.330225  0.985784  1
  O  O15  1  0.933891  0.514215  0.330225  1
  O  O16  1  0.933891  0.985784  0.169775  1
  O  O17  1  0.933891  0.169775  0.514215  1
  O  O18  1  0.486717  0.037112  0.356329  1
  O  O19  1  0.486717  0.143670  0.037113  1
  O  O20  1  0.486717  0.356329  0.462888  1
  O  O21  1  0.486717  0.462888  0.143671  1
  O  O22  1  0.513282  0.537112  0.856329  1
  O  O23  1  0.513282  0.856329  0.962888  1
  O  O24  1  0.513282  0.643671  0.537112  1
  O  O25  1  0.513282  0.962887  0.643671  1
