# generated using pymatgen
data_Mg(BiO2)2
_symmetry_space_group_name_H-M   'P 1'
_cell_length_a   6.77592813
_cell_length_b   6.93269813
_cell_length_c   20.38530823
_cell_angle_alpha   59.33179665
_cell_angle_beta   58.50714785
_cell_angle_gamma   59.22690147
_symmetry_Int_Tables_number   1
_chemical_formula_structural   Mg(BiO2)2
_chemical_formula_sum   'Mg6 Bi12 O24'
_cell_volume   661.94396740
_cell_formula_units_Z   6
loop_
 _symmetry_equiv_pos_site_id
 _symmetry_equiv_pos_as_xyz
  1  'x, y, z'
loop_
 _atom_site_type_symbol
 _atom_site_label
 _atom_site_symmetry_multiplicity
 _atom_site_fract_x
 _atom_site_fract_y
 _atom_site_fract_z
 _atom_site_occupancy
  Mg  Mg0  1  0.134176  0.123240  0.039828  1
  Mg  Mg1  1  0.489864  0.497031  0.338709  1
  Mg  Mg2  1  0.982715  0.487676  0.180595  1
  Mg  Mg3  1  0.509594  0.500581  0.663089  1
  Mg  Mg4  1  0.998053  0.500198  0.500532  1
  Mg  Mg5  1  0.005679  0.516760  0.820218  1
  Bi  Bi6  1  0.514664  0.986486  0.168926  1
  Bi  Bi7  1  0.133926  0.115856  0.378077  1
  Bi  Bi8  1  0.486600  0.502304  0.002915  1
  Bi  Bi9  1  0.514537  0.492217  0.168956  1
  Bi  Bi10  1  0.499134  0.998383  0.501554  1
  Bi  Bi11  1  0.116654  0.117369  0.716164  1
  Bi  Bi12  1  0.499225  0.497735  0.501544  1
  Bi  Bi13  1  0.480424  0.014242  0.832096  1
  Bi  Bi14  1  0.880505  0.878057  0.287852  1
  Bi  Bi15  1  0.480443  0.509046  0.832096  1
  Bi  Bi16  1  0.871386  0.886859  0.618313  1
  Bi  Bi17  1  0.818334  0.896631  0.962779  1
  O  O18  1  0.252747  0.246070  0.084878  1
  O  O19  1  0.225196  0.272261  0.243469  1
  O  O20  1  0.252935  0.746654  0.084816  1
  O  O21  1  0.760106  0.255703  0.076144  1
  O  O22  1  0.245116  0.287981  0.421946  1
  O  O23  1  0.290395  0.719549  0.256917  1
  O  O24  1  0.233364  0.260230  0.582113  1
  O  O25  1  0.735659  0.288173  0.255938  1
  O  O26  1  0.245193  0.700847  0.421926  1
  O  O27  1  0.779875  0.705211  0.103202  1
  O  O28  1  0.730630  0.266655  0.411985  1
  O  O29  1  0.735605  0.708488  0.255931  1
  O  O30  1  0.266760  0.292744  0.745079  1
  O  O31  1  0.276810  0.729382  0.588159  1
  O  O32  1  0.748243  0.301936  0.580421  1
  O  O33  1  0.266839  0.705090  0.745090  1
  O  O34  1  0.265424  0.246975  0.913581  1
  O  O35  1  0.759769  0.736496  0.422445  1
  O  O36  1  0.703261  0.275983  0.748192  1
  O  O37  1  0.748323  0.708629  0.580450  1
  O  O38  1  0.210846  0.765457  0.919332  1
  O  O39  1  0.787854  0.287335  0.897045  1
  O  O40  1  0.775400  0.737785  0.749664  1
  O  O41  1  0.787734  0.733693  0.897035  1
