# generated using pymatgen
data_MgCr(GeO3)2
_symmetry_space_group_name_H-M   'P 1'
_cell_length_a   5.33006200
_cell_length_b   6.65770650
_cell_length_c   6.65770663
_cell_angle_alpha   85.25602695
_cell_angle_beta   84.24858170
_cell_angle_gamma   84.24857602
_symmetry_Int_Tables_number   1
_chemical_formula_structural   MgCr(GeO3)2
_chemical_formula_sum   'Mg2 Cr2 Ge4 O12'
_cell_volume   233.25184146
_cell_formula_units_Z   2
loop_
 _symmetry_equiv_pos_site_id
 _symmetry_equiv_pos_as_xyz
  1  'x, y, z'
loop_
 _atom_site_type_symbol
 _atom_site_label
 _atom_site_symmetry_multiplicity
 _atom_site_fract_x
 _atom_site_fract_y
 _atom_site_fract_z
 _atom_site_occupancy
  Mg  Mg0  1  0.750000  0.270097  0.729903  1
  Mg  Mg1  1  0.250000  0.729903  0.270097  1
  Cr  Cr2  1  0.750000  0.907314  0.092686  1
  Cr  Cr3  1  0.250000  0.092686  0.907314  1
  Ge  Ge4  1  0.780212  0.396430  0.209627  1
  Ge  Ge5  1  0.719788  0.790373  0.603570  1
  Ge  Ge6  1  0.219788  0.603570  0.790373  1
  Ge  Ge7  1  0.280212  0.209627  0.396430  1
  O  O8  1  0.592436  0.290669  0.433933  1
  O  O9  1  0.907564  0.566067  0.709331  1
  O  O10  1  0.407564  0.709331  0.566067  1
  O  O11  1  0.092436  0.433933  0.290669  1
  O  O12  1  0.112124  0.145325  0.625441  1
  O  O13  1  0.387876  0.374559  0.854675  1
  O  O14  1  0.887876  0.854675  0.374559  1
  O  O15  1  0.612124  0.625441  0.145325  1
  O  O16  1  0.843573  0.213859  0.031370  1
  O  O17  1  0.656427  0.968630  0.786141  1
  O  O18  1  0.156427  0.786141  0.968630  1
  O  O19  1  0.343573  0.031370  0.213859  1
