# generated using pymatgen
data_WF5
_symmetry_space_group_name_H-M   'P 1'
_cell_length_a   5.61154748
_cell_length_b   5.61074675
_cell_length_c   7.93726058
_cell_angle_alpha   96.70093202
_cell_angle_beta   109.89842039
_cell_angle_gamma   110.76544306
_symmetry_Int_Tables_number   1
_chemical_formula_structural   WF5
_chemical_formula_sum   'W2 F10'
_cell_volume   211.56170771
_cell_formula_units_Z   2
loop_
 _symmetry_equiv_pos_site_id
 _symmetry_equiv_pos_as_xyz
  1  'x, y, z'
loop_
 _atom_site_type_symbol
 _atom_site_label
 _atom_site_symmetry_multiplicity
 _atom_site_fract_x
 _atom_site_fract_y
 _atom_site_fract_z
 _atom_site_occupancy
  W  W0  1  0.995417  0.999593  0.999079  1
  W  W1  1  0.499354  0.000593  0.498388  1
  F  F2  1  0.322127  0.072581  0.247709  1
  F  F3  1  0.671126  0.927776  0.749784  1
  F  F4  1  0.599183  0.757243  0.382120  1
  F  F5  1  0.875761  0.222871  0.117498  1
  F  F6  1  0.770912  0.695529  0.044594  1
  F  F7  1  0.145027  0.737279  0.454512  1
  F  F8  1  0.221070  0.304924  0.954874  1
  F  F9  1  0.854259  0.262649  0.542508  1
  F  F10  1  0.112847  0.775577  0.879476  1
  F  F11  1  0.401166  0.245034  0.615336  1
