# generated using pymatgen
data_V3O7
_symmetry_space_group_name_H-M   'P 1'
_cell_length_a   5.37770536
_cell_length_b   10.76016674
_cell_length_c   10.51107200
_cell_angle_alpha   90.00000000
_cell_angle_beta   90.00000000
_cell_angle_gamma   90.00000000
_symmetry_Int_Tables_number   1
_chemical_formula_structural   V3O7
_chemical_formula_sum   'V12 O28'
_cell_volume   608.22324805
_cell_formula_units_Z   4
loop_
 _symmetry_equiv_pos_site_id
 _symmetry_equiv_pos_as_xyz
  1  'x, y, z'
loop_
 _atom_site_type_symbol
 _atom_site_label
 _atom_site_symmetry_multiplicity
 _atom_site_fract_x
 _atom_site_fract_y
 _atom_site_fract_z
 _atom_site_occupancy
  V  V0  1  0.295626  0.028524  0.299895  1
  V  V1  1  0.795626  0.971476  0.200105  1
  V  V2  1  0.704374  0.528524  0.700105  1
  V  V3  1  0.204374  0.471476  0.799895  1
  V  V4  1  0.300473  0.750000  0.217965  1
  V  V5  1  0.800473  0.250000  0.282035  1
  V  V6  1  0.699527  0.250000  0.782035  1
  V  V7  1  0.199527  0.750000  0.717965  1
  V  V8  1  0.795626  0.528524  0.200105  1
  V  V9  1  0.295626  0.471476  0.299895  1
  V  V10  1  0.204374  0.028524  0.799895  1
  V  V11  1  0.704374  0.971476  0.700105  1
  O  O12  1  0.933348  0.112672  0.730019  1
  O  O13  1  0.433348  0.887328  0.769981  1
  O  O14  1  0.066652  0.612672  0.269981  1
  O  O15  1  0.566652  0.387328  0.230019  1
  O  O16  1  0.066652  0.887328  0.269981  1
  O  O17  1  0.566652  0.112672  0.230019  1
  O  O18  1  0.933348  0.387328  0.730019  1
  O  O19  1  0.433348  0.612672  0.769981  1
  O  O20  1  0.470436  0.112514  0.725265  1
  O  O21  1  0.970436  0.887486  0.774735  1
  O  O22  1  0.529564  0.612514  0.274735  1
  O  O23  1  0.029564  0.387486  0.225265  1
  O  O24  1  0.529564  0.887486  0.274735  1
  O  O25  1  0.029564  0.112514  0.225265  1
  O  O26  1  0.470436  0.387486  0.725265  1
  O  O27  1  0.970436  0.612514  0.774735  1
  O  O28  1  0.193132  0.750000  0.564947  1
  O  O29  1  0.693132  0.250000  0.935053  1
  O  O30  1  0.806868  0.250000  0.435053  1
  O  O31  1  0.306868  0.750000  0.064947  1
  O  O32  1  0.214647  0.435312  0.947782  1
  O  O33  1  0.714647  0.564688  0.552218  1
  O  O34  1  0.785353  0.935312  0.052218  1
  O  O35  1  0.285353  0.064688  0.447782  1
  O  O36  1  0.785353  0.564688  0.052218  1
  O  O37  1  0.285353  0.435312  0.447782  1
  O  O38  1  0.214647  0.064688  0.947782  1
  O  O39  1  0.714647  0.935312  0.552218  1
