# generated using pymatgen
data_MgMn(SiO3)2
_symmetry_space_group_name_H-M   'P 1'
_cell_length_a   5.35505127
_cell_length_b   6.83641678
_cell_length_c   6.83641702
_cell_angle_alpha   86.01681774
_cell_angle_beta   76.32570289
_cell_angle_gamma   76.32570723
_symmetry_Int_Tables_number   1
_chemical_formula_structural   MgMn(SiO3)2
_chemical_formula_sum   'Mg2 Mn2 Si4 O12'
_cell_volume   236.26545282
_cell_formula_units_Z   2
loop_
 _symmetry_equiv_pos_site_id
 _symmetry_equiv_pos_as_xyz
  1  'x, y, z'
loop_
 _atom_site_type_symbol
 _atom_site_label
 _atom_site_symmetry_multiplicity
 _atom_site_fract_x
 _atom_site_fract_y
 _atom_site_fract_z
 _atom_site_occupancy
  Mg  Mg0  1  0.750000  0.247638  0.752362  1
  Mg  Mg1  1  0.250001  0.752362  0.247639  1
  Mn  Mn2  1  0.249999  0.105717  0.894284  1
  Mn  Mn3  1  0.749999  0.894285  0.105716  1
  Si  Si4  1  0.239313  0.209555  0.384002  1
  Si  Si5  1  0.260686  0.615998  0.790445  1
  Si  Si6  1  0.739313  0.384002  0.209555  1
  Si  Si7  1  0.760687  0.790445  0.615998  1
  O  O8  1  0.491388  0.315107  0.376729  1
  O  O9  1  0.008612  0.623270  0.684894  1
  O  O10  1  0.508613  0.684894  0.623271  1
  O  O11  1  0.991387  0.376730  0.315106  1
  O  O12  1  0.123418  0.146178  0.613867  1
  O  O13  1  0.376582  0.386132  0.853821  1
  O  O14  1  0.876582  0.853822  0.386133  1
  O  O15  1  0.623417  0.613867  0.146179  1
  O  O16  1  0.841608  0.220029  0.026111  1
  O  O17  1  0.658392  0.973889  0.779970  1
  O  O18  1  0.341607  0.026111  0.220030  1
  O  O19  1  0.158393  0.779971  0.973889  1
