# generated using pymatgen
data_V4(CuO4)3
_symmetry_space_group_name_H-M   'P 1'
_cell_length_a   6.30966914
_cell_length_b   6.30845676
_cell_length_c   6.30848651
_cell_angle_alpha   109.45967216
_cell_angle_beta   109.47438488
_cell_angle_gamma   109.46799142
_symmetry_Int_Tables_number   1
_chemical_formula_structural   V4(CuO4)3
_chemical_formula_sum   'V4 Cu3 O12'
_cell_volume   193.32821016
_cell_formula_units_Z   1
loop_
 _symmetry_equiv_pos_site_id
 _symmetry_equiv_pos_as_xyz
  1  'x, y, z'
loop_
 _atom_site_type_symbol
 _atom_site_label
 _atom_site_symmetry_multiplicity
 _atom_site_fract_x
 _atom_site_fract_y
 _atom_site_fract_z
 _atom_site_occupancy
  V  V0  1  0.499998  0.499999  0.500000  1
  V  V1  1  0.999999  0.500000  -0.000000  1
  V  V2  1  0.000000  0.000000  0.500000  1
  V  V3  1  0.500001  0.000001  0.000001  1
  Cu  Cu4  1  0.000002  0.500003  0.500000  1
  Cu  Cu5  1  0.500001  0.500001  0.000000  1
  Cu  Cu6  1  0.500003  1.000000  0.500001  1
  O  O7  1  0.120616  0.813822  0.306782  1
  O  O8  1  0.813758  0.693212  0.507042  1
  O  O9  1  0.306793  0.492956  0.186208  1
  O  O10  1  0.186230  0.693269  0.879445  1
  O  O11  1  0.693206  0.507043  0.813791  1
  O  O12  1  0.186241  0.306787  0.492957  1
  O  O13  1  0.693207  0.879407  0.186165  1
  O  O14  1  0.306792  0.120593  0.813835  1
  O  O15  1  0.813769  0.306731  0.120555  1
  O  O16  1  0.507037  0.813810  0.693215  1
  O  O17  1  0.492961  0.186189  0.306785  1
  O  O18  1  0.879385  0.186178  0.693218  1
