# generated using pymatgen
data_MgV2O4
_symmetry_space_group_name_H-M   'P 1'
_cell_length_a   6.05390134
_cell_length_b   6.06660911
_cell_length_c   24.18634708
_cell_angle_alpha   59.89039902
_cell_angle_beta   59.94241006
_cell_angle_gamma   59.93053793
_symmetry_Int_Tables_number   1
_chemical_formula_structural   MgV2O4
_chemical_formula_sum   'Mg8 V16 O32'
_cell_volume   626.98711986
_cell_formula_units_Z   8
loop_
 _symmetry_equiv_pos_site_id
 _symmetry_equiv_pos_as_xyz
  1  'x, y, z'
loop_
 _atom_site_type_symbol
 _atom_site_label
 _atom_site_symmetry_multiplicity
 _atom_site_fract_x
 _atom_site_fract_y
 _atom_site_fract_z
 _atom_site_occupancy
  Mg  Mg0  1  0.132512  0.122761  0.030492  1
  Mg  Mg1  1  0.002699  0.497748  0.125450  1
  Mg  Mg2  1  0.131280  0.120897  0.281731  1
  Mg  Mg3  1  0.999486  0.499083  0.375587  1
  Mg  Mg4  1  0.000592  0.500502  0.624601  1
  Mg  Mg5  1  0.499992  0.499536  0.500234  1
  Mg  Mg6  1  0.004028  0.499575  0.874205  1
  Mg  Mg7  1  0.502215  0.500784  0.749054  1
  V  V8  1  0.496525  0.497742  0.125118  1
  V  V9  1  0.493160  0.498986  0.252217  1
  V  V10  1  0.496525  0.005260  0.125118  1
  V  V11  1  0.128086  0.119799  0.533079  1
  V  V12  1  0.499195  0.498444  0.374966  1
  V  V13  1  0.868164  0.877836  0.219041  1
  V  V14  1  0.130864  0.120756  0.781906  1
  V  V15  1  0.499195  0.002497  0.374966  1
  V  V16  1  0.500755  0.500916  0.624479  1
  V  V17  1  0.870096  0.882232  0.466360  1
  V  V18  1  0.500755  0.000411  0.624479  1
  V  V19  1  0.498470  0.003116  0.874626  1
  V  V20  1  0.498470  0.499911  0.874626  1
  V  V21  1  0.871767  0.880035  0.717040  1
  V  V22  1  0.497181  0.497036  0.002187  1
  V  V23  1  0.868075  0.876547  0.969708  1
  O  O24  1  0.269779  0.254447  0.064300  1
  O  O25  1  0.264324  0.256094  0.180872  1
  O  O26  1  0.269779  0.718577  0.064300  1
  O  O27  1  0.727182  0.256488  0.064961  1
  O  O28  1  0.266554  0.745534  0.185594  1
  O  O29  1  0.269656  0.256075  0.314280  1
  O  O30  1  0.731990  0.276618  0.186236  1
  O  O31  1  0.256941  0.252960  0.434284  1
  O  O32  1  0.269656  0.717147  0.314280  1
  O  O33  1  0.738705  0.744616  0.068015  1
  O  O34  1  0.722384  0.255929  0.316440  1
  O  O35  1  0.731990  0.746450  0.186236  1
  O  O36  1  0.260431  0.252952  0.565160  1
  O  O37  1  0.270209  0.748644  0.433126  1
  O  O38  1  0.738679  0.273331  0.434153  1
  O  O39  1  0.269355  0.251892  0.681715  1
  O  O40  1  0.260431  0.725977  0.565160  1
  O  O41  1  0.739925  0.746191  0.316923  1
  O  O42  1  0.729812  0.254528  0.565283  1
  O  O43  1  0.738679  0.751380  0.434153  1
  O  O44  1  0.269599  0.745733  0.684733  1
  O  O45  1  0.263588  0.246707  0.815367  1
  O  O46  1  0.740343  0.272890  0.684741  1
  O  O47  1  0.267716  0.257697  0.929222  1
  O  O48  1  0.263588  0.728235  0.815367  1
  O  O49  1  0.731898  0.749004  0.567524  1
  O  O50  1  0.734270  0.252936  0.814964  1
  O  O51  1  0.740343  0.747807  0.684741  1
  O  O52  1  0.267714  0.743564  0.936290  1
  O  O53  1  0.732438  0.275369  0.936307  1
  O  O54  1  0.739517  0.744853  0.817694  1
  O  O55  1  0.732438  0.746963  0.936307  1
