# generated using pymatgen
data_SbF5
_symmetry_space_group_name_H-M   'P 1'
_cell_length_a   5.53566933
_cell_length_b   5.54903524
_cell_length_c   7.93270095
_cell_angle_alpha   97.13539803
_cell_angle_beta   109.62239349
_cell_angle_gamma   110.22637326
_symmetry_Int_Tables_number   1
_chemical_formula_structural   SbF5
_chemical_formula_sum   'Sb2 F10'
_cell_volume   207.25494823
_cell_formula_units_Z   2
loop_
 _symmetry_equiv_pos_site_id
 _symmetry_equiv_pos_as_xyz
  1  'x, y, z'
loop_
 _atom_site_type_symbol
 _atom_site_label
 _atom_site_symmetry_multiplicity
 _atom_site_fract_x
 _atom_site_fract_y
 _atom_site_fract_z
 _atom_site_occupancy
  Sb  Sb0  1  0.995022  0.999650  0.999366  1
  Sb  Sb1  1  0.499728  0.000448  0.498448  1
  F  F2  1  0.332986  0.083063  0.247921  1
  F  F3  1  0.659751  0.917525  0.749834  1
  F  F4  1  0.595613  0.751612  0.382097  1
  F  F5  1  0.868822  0.217139  0.117195  1
  F  F6  1  0.767508  0.702835  0.050181  1
  F  F7  1  0.149222  0.727022  0.449391  1
  F  F8  1  0.224769  0.297446  0.950565  1
  F  F9  1  0.851499  0.272828  0.547121  1
  F  F10  1  0.117044  0.780756  0.878801  1
  F  F11  1  0.406283  0.251324  0.614959  1
