# generated using pymatgen
data_MgMn2O4
_symmetry_space_group_name_H-M   'P 1'
_cell_length_a   6.03724182
_cell_length_b   6.05690025
_cell_length_c   24.20028273
_cell_angle_alpha   59.96264929
_cell_angle_beta   59.98890039
_cell_angle_gamma   59.89222744
_symmetry_Int_Tables_number   1
_chemical_formula_structural   MgMn2O4
_chemical_formula_sum   'Mg8 Mn16 O32'
_cell_volume   625.00076719
_cell_formula_units_Z   8
loop_
 _symmetry_equiv_pos_site_id
 _symmetry_equiv_pos_as_xyz
  1  'x, y, z'
loop_
 _atom_site_type_symbol
 _atom_site_label
 _atom_site_symmetry_multiplicity
 _atom_site_fract_x
 _atom_site_fract_y
 _atom_site_fract_z
 _atom_site_occupancy
  Mg  Mg0  1  0.145005  0.118589  0.029455  1
  Mg  Mg1  1  0.000956  0.499398  0.125061  1
  Mg  Mg2  1  0.143015  0.115800  0.281346  1
  Mg  Mg3  1  -0.000091  0.499272  0.375387  1
  Mg  Mg4  1  0.000017  0.500284  0.624854  1
  Mg  Mg5  1  0.498169  0.500536  0.500190  1
  Mg  Mg6  1  0.001216  0.500153  0.874620  1
  Mg  Mg7  1  0.502057  0.500217  0.749377  1
  Mn  Mn8  1  0.499156  0.499229  0.125025  1
  Mn  Mn9  1  0.496461  0.500519  0.250625  1
  Mn  Mn10  1  0.499156  0.001516  0.125025  1
  Mn  Mn11  1  0.134958  0.113774  0.534373  1
  Mn  Mn12  1  0.502735  0.497129  0.375501  1
  Mn  Mn13  1  0.859366  0.880727  0.219795  1
  Mn  Mn14  1  0.139243  0.117311  0.781534  1
  Mn  Mn15  1  0.502735  0.998133  0.375501  1
  Mn  Mn16  1  0.500290  0.500379  0.624779  1
  Mn  Mn17  1  0.861443  0.884017  0.467630  1
  Mn  Mn18  1  0.500290  0.000214  0.624779  1
  Mn  Mn19  1  0.496629  0.004056  0.874375  1
  Mn  Mn20  1  0.496629  0.501815  0.874375  1
  Mn  Mn21  1  0.864112  0.886088  0.715927  1
  Mn  Mn22  1  0.502174  0.497334  0.000790  1
  Mn  Mn23  1  0.861782  0.881305  0.968902  1
  O  O24  1  0.277987  0.257536  0.063779  1
  O  O25  1  0.278237  0.254577  0.178152  1
  O  O26  1  0.277987  0.709364  0.063779  1
  O  O27  1  0.740750  0.256706  0.061460  1
  O  O28  1  0.263755  0.741659  0.188231  1
  O  O29  1  0.281853  0.254399  0.314182  1
  O  O30  1  0.718781  0.295030  0.186307  1
  O  O31  1  0.276479  0.254996  0.428382  1
  O  O32  1  0.281853  0.707021  0.314182  1
  O  O33  1  0.717997  0.743623  0.073689  1
  O  O34  1  0.726879  0.254511  0.316025  1
  O  O35  1  0.718781  0.740963  0.186307  1
  O  O36  1  0.274538  0.246343  0.568003  1
  O  O37  1  0.278679  0.750088  0.430286  1
  O  O38  1  0.728597  0.292073  0.431087  1
  O  O39  1  0.278888  0.254719  0.677919  1
  O  O40  1  0.274538  0.707105  0.568003  1
  O  O41  1  0.721705  0.744253  0.322447  1
  O  O42  1  0.715099  0.254253  0.569099  1
  O  O43  1  0.728597  0.754983  0.431087  1
  O  O44  1  0.284843  0.746651  0.680463  1
  O  O45  1  0.269958  0.245851  0.818759  1
  O  O46  1  0.725780  0.293311  0.681538  1
  O  O47  1  0.277570  0.254960  0.928127  1
  O  O48  1  0.269958  0.709152  0.818759  1
  O  O49  1  0.722030  0.746090  0.571448  1
  O  O50  1  0.723928  0.251332  0.818352  1
  O  O51  1  0.725780  0.754760  0.681538  1
  O  O52  1  0.278505  0.740163  0.935293  1
  O  O53  1  0.715831  0.297185  0.935988  1
  O  O54  1  0.720503  0.745520  0.822114  1
  O  O55  1  0.715831  0.743031  0.935988  1
